%% MATPOWER Case Format : Version 2
function mpc = case_ACTIVSg2000
mpc.version = '2';

%%-----  Power Flow Data  -----%%
%% system MVA base
mpc.baseMVA = 100;
%% bus data
%    bus_i    type    Pd    Qd    Gs    Bs    area    Vm    Va    baseKV    zone    Vmax    Vmin
mpc.bus = [
	1001	1	20.78	5.89	0.0	0.0	1	0.9983719999999999	-22.3462	115.0	9	1.1	0.9	0.0	0.0	0.0	0.0
	1002	1	15.410000000000002	4.37	0.0	0.0	1	1.02291	-17.8585	115.0	9	1.1	0.9	0.0	0.0	0.0	0.0
	1003	1	0.0	0.0	0.0	0.0	1	1.0141	-17.5032	115.0	9	1.1	0.9	0.0	0.0	0.0	0.0
	1004	2	0.0	0.0	0.0	0.0	1	1.02005	-19.3247	230.0	9	1.1	0.9	0.0	0.0	0.0	0.0
	1005	1	0.0	0.0	0.0	0.0	1	1.0123799999999998	-15.9276	115.0	9	1.1	0.9	0.0	0.0	0.0	0.0
	1006	2	0.0	0.0	0.0	0.0	1	1.00599	-13.7815	13.8	9	1.1	0.9	0.0	0.0	0.0	0.0
	1007	1	7.01	1.9900000000000002	0.0	-0.77	1	1.03	-18.2162	115.0	9	1.1	0.9	0.0	0.0	0.0	0.0
	1008	1	0.0	0.0	0.0	0.0	1	1.02615	-8.58995	115.0	9	1.1	0.9	0.0	0.0	0.0	0.0
	1009	2	0.0	0.0	0.0	0.0	1	1.0162	-5.3388599999999995	13.8	9	1.1	0.9	0.0	0.0	0.0	0.0
	1010	1	0.0	0.0	0.0	-3.3300000000000005	1	1.03	-16.5896	115.0	9	1.1	0.9	0.0	0.0	0.0	0.0
	1011	2	0.0	0.0	0.0	0.0	1	1.0302200000000001	-14.8392	22.0	9	1.1	0.9	0.0	0.0	0.0	0.0
	1012	1	2.99	0.8500000000000001	0.0	11.3	1	1.03	-25.191	115.0	9	1.1	0.9	0.0	0.0	0.0	0.0
	1013	1	29.23	8.28	0.0	0.0	1	1.0142799999999998	-15.197100000000002	115.0	9	1.1	0.9	0.0	0.0	0.0	0.0
	1014	1	2.22	0.63	0.0	0.0	1	1.02099	-11.7776	115.0	9	1.1	0.9	0.0	0.0	0.0	0.0
	1015	1	7.51	2.13	0.0	0.0	1	1.03195	-17.9787	115.0	9	1.1	0.9	0.0	0.0	0.0	0.0
	1016	1	2.89	0.8199999999999998	0.0	39.43	1	1.03	-15.391499999999999	115.0	9	1.1	0.9	0.0	0.0	0.0	0.0
	1017	1	18.34	5.2	0.0	0.0	1	0.996559	-21.1078	115.0	9	1.1	0.9	0.0	0.0	0.0	0.0
	1018	1	0.07	0.02	0.0	0.0	1	1.0003	-19.8254	115.0	9	1.1	0.9	0.0	0.0	0.0	0.0
	1019	1	61.78	17.5	0.0	261.44	1	1.03	-22.081999999999997	115.0	9	1.1	0.9	0.0	0.0	0.0	0.0
	1020	1	0.0	0.0	0.0	71.32	1	1.03	-15.157500000000002	115.0	9	1.1	0.9	0.0	0.0	0.0	0.0
	1021	2	0.0	0.0	0.0	0.0	1	1.00587	-8.62704	13.8	9	1.1	0.9	0.0	0.0	0.0	0.0
	1022	1	0.0	0.0	0.0	0.0	1	1.01661	-16.6531	115.0	9	1.1	0.9	0.0	0.0	0.0	0.0
	1023	2	0.0	0.0	0.0	0.0	1	1.01	-7.774760000000001	13.8	9	1.1	0.9	0.0	0.0	0.0	0.0
	1024	1	63.04	17.86	0.0	0.0	1	0.999026	-18.8019	115.0	9	1.1	0.9	0.0	0.0	0.0	0.0
	1025	1	0.0	0.0	0.0	0.0	1	1.02427	-14.0817	115.0	9	1.1	0.9	0.0	0.0	0.0	0.0
	1026	2	0.0	0.0	0.0	0.0	1	1.0	-4.617080000000001	13.8	9	1.1	0.9	0.0	0.0	0.0	0.0
	1027	1	101.21	28.68	0.0	88.7	1	1.03	-25.5841	115.0	9	1.1	0.9	0.0	0.0	0.0	0.0
	1028	1	10.01	2.84	0.0	0.0	1	1.01989	-18.2276	115.0	9	1.1	0.9	0.0	0.0	0.0	0.0
	1029	1	83.18	23.57	0.0	61.199999999999996	1	1.03	-24.6101	115.0	9	1.1	0.9	0.0	0.0	0.0	0.0
	1030	1	24.63	6.98	0.0	0.0	1	1.0225600000000001	-13.3008	115.0	9	1.1	0.9	0.0	0.0	0.0	0.0
	1031	1	9.25	2.62	0.0	0.0	1	1.02159	-17.4156	115.0	9	1.1	0.9	0.0	0.0	0.0	0.0
	1032	1	0.0	0.0	0.0	0.0	1	1.0098799999999999	-12.2347	115.0	9	1.1	0.9	0.0	0.0	0.0	0.0
	1033	2	0.0	0.0	0.0	61.95	1	1.03004	-16.769000000000002	230.0	9	1.1	0.9	0.0	0.0	0.0	0.0
	1034	1	0.0	0.0	0.0	0.0	1	1.01013	-14.1633	115.0	9	1.1	0.9	0.0	0.0	0.0	0.0
	1035	2	0.0	0.0	0.0	0.0	1	1.00042	-10.8778	13.8	9	1.1	0.9	0.0	0.0	0.0	0.0
	1036	1	13.600000000000001	3.85	0.0	0.0	1	1.00226	-12.4195	115.0	9	1.1	0.9	0.0	0.0	0.0	0.0
	1037	1	102.24	28.970000000000002	0.0	0.0	1	0.9904930000000001	-22.1747	115.0	9	1.1	0.9	0.0	0.0	0.0	0.0
	1038	1	0.0	0.0	0.0	0.0	1	1.02516	-7.64916	115.0	9	1.1	0.9	0.0	0.0	0.0	0.0
	1039	2	0.0	0.0	0.0	0.0	1	1.0048	-2.33133	22.0	9	1.1	0.9	0.0	0.0	0.0	0.0
	1040	1	44.36	12.57	0.0	0.0	1	1.00614	-20.1249	115.0	9	1.1	0.9	0.0	0.0	0.0	0.0
	1041	1	0.0	0.0	0.0	0.0	1	1.00661	-14.9184	115.0	9	1.1	0.9	0.0	0.0	0.0	0.0
	1042	1	0.0	0.0	0.0	0.0	1	1.00661	-14.9184	13.8	9	1.1	0.9	0.0	0.0	0.0	0.0
	1043	2	0.0	0.0	0.0	0.0	1	1.0	-11.6843	13.8	9	1.1	0.9	0.0	0.0	0.0	0.0
	1044	1	14.679999999999998	4.16	0.0	0.0	1	1.0179200000000002	-25.6916	115.0	9	1.1	0.9	0.0	0.0	0.0	0.0
	1045	1	98.56	27.93	0.0	0.0	1	1.0034399999999999	-24.0542	115.0	9	1.1	0.9	0.0	0.0	0.0	0.0
	1046	1	11.08	3.1400000000000006	0.0	13.119999999999997	1	1.03	-22.3261	115.0	9	1.1	0.9	0.0	0.0	0.0	0.0
	1047	1	0.0	0.0	0.0	0.0	1	1.01175	-13.1298	115.0	9	1.1	0.9	0.0	0.0	0.0	0.0
	1048	1	0.0	0.0	0.0	0.0	1	1.01175	-13.1298	18.0	9	1.1	0.9	0.0	0.0	0.0	0.0
	1049	1	0.0	0.0	0.0	0.0	1	1.01175	-13.1298	18.0	9	1.1	0.9	0.0	0.0	0.0	0.0
	1050	2	0.0	0.0	0.0	0.0	1	1.00076	-8.084019999999999	18.0	9	1.1	0.9	0.0	0.0	0.0	0.0
	1051	2	0.0	0.0	0.0	0.0	1	1.0	-6.60451	18.0	9	1.1	0.9	0.0	0.0	0.0	0.0
	1052	2	0.0	0.0	0.0	0.0	1	1.00416	-8.94709	18.0	9	1.1	0.9	0.0	0.0	0.0	0.0
	1053	1	0.0	0.0	0.0	0.0	1	1.02653	-17.1224	230.0	9	1.1	0.9	0.0	0.0	0.0	0.0
	1054	1	14.99	4.25	0.0	0.0	1	1.0132	-22.1326	115.0	9	1.1	0.9	0.0	0.0	0.0	0.0
	1055	1	3.9800000000000004	1.13	0.0	0.0	1	1.00688	-18.4852	115.0	9	1.1	0.9	0.0	0.0	0.0	0.0
	1056	1	0.0	0.0	0.0	33.22	1	1.03	-21.5409	115.0	9	1.1	0.9	0.0	0.0	0.0	0.0
	1057	1	0.0	0.0	0.0	0.0	1	1.03	-21.5409	18.0	9	1.1	0.9	0.0	0.0	0.0	0.0
	1058	1	13.459999999999999	3.81	0.0	0.0	1	1.02675	-11.1878	115.0	9	1.1	0.9	0.0	0.0	0.0	0.0
	1059	1	0.0	0.0	0.0	0.0	1	1.02675	-11.1878	22.0	9	1.1	0.9	0.0	0.0	0.0	0.0
	1060	1	0.0	0.0	0.0	0.0	1	1.02675	-11.1878	22.0	9	1.1	0.9	0.0	0.0	0.0	0.0
	1061	1	0.0	0.0	0.0	0.0	1	1.01393	-17.0591	115.0	9	1.1	0.9	0.0	0.0	0.0	0.0
	1062	1	0.0	0.0	0.0	0.0	1	1.01393	-17.0591	13.8	9	1.1	0.9	0.0	0.0	0.0	0.0
	1063	1	0.0	0.0	0.0	0.0	1	1.01393	-17.0591	13.8	9	1.1	0.9	0.0	0.0	0.0	0.0
	1064	1	123.76	35.07	0.0	0.0	1	0.993391	-23.7293	115.0	9	1.1	0.9	0.0	0.0	0.0	0.0
	1065	1	0.0	0.0	0.0	0.0	1	1.00912	-14.739099999999999	115.0	9	1.1	0.9	0.0	0.0	0.0	0.0
	1066	2	0.0	0.0	0.0	0.0	1	1.0	-7.230580000000001	13.8	9	1.1	0.9	0.0	0.0	0.0	0.0
	1067	1	101.55000000000001	28.77	0.0	0.0	1	1.00407	-15.5007	115.0	9	1.1	0.9	0.0	0.0	0.0	0.0
	1068	1	59.4	16.83	0.0	0.0	1	0.9934719999999999	-16.2849	115.0	9	1.1	0.9	0.0	0.0	0.0	0.0
	1069	1	0.0	0.0	0.0	0.0	1	1.02867	-8.71349	115.0	9	1.1	0.9	0.0	0.0	0.0	0.0
	1070	2	0.0	0.0	0.0	0.0	1	1.04	-4.2219999999999995	13.8	9	1.1	0.9	0.0	0.0	0.0	0.0
	1071	1	91.46	25.91	0.0	0.0	1	1.0040200000000001	-21.1126	115.0	9	1.1	0.9	0.0	0.0	0.0	0.0
	1072	2	0.0	0.0	0.0	0.0	1	1.01	-11.8352	18.0	9	1.1	0.9	0.0	0.0	0.0	0.0
	1073	2	0.0	0.0	0.0	0.0	1	1.01	-5.5374300000000005	18.0	9	1.1	0.9	0.0	0.0	0.0	0.0
	1074	2	0.0	0.0	0.0	0.0	1	1.01	-7.54851	18.0	9	1.1	0.9	0.0	0.0	0.0	0.0
	1075	2	0.0	0.0	0.0	0.0	1	1.01	-10.2802	18.0	9	1.1	0.9	0.0	0.0	0.0	0.0
	1076	1	0.0	0.0	0.0	0.0	1	1.0040200000000001	-21.1126	18.0	9	1.1	0.9	0.0	0.0	0.0	0.0
	1077	1	0.0	0.0	0.0	0.0	1	1.0040200000000001	-21.1126	18.0	9	1.1	0.9	0.0	0.0	0.0	0.0
	1078	2	0.0	0.0	0.0	0.0	1	1.01	-10.8005	18.0	9	1.1	0.9	0.0	0.0	0.0	0.0
	1079	2	0.0	0.0	0.0	0.0	1	1.0204600000000001	-37.6396	500.0	9	1.1	0.9	0.0	0.0	0.0	0.0
	1080	2	0.0	0.0	0.0	0.0	1	1.01	-10.2023	18.0	9	1.1	0.9	0.0	0.0	0.0	0.0
	1081	1	0.0	0.0	0.0	42.78	1	1.03	-18.4788	230.0	9	1.1	0.9	0.0	0.0	0.0	0.0
	1082	2	0.0	0.0	0.0	0.0	1	1.0271700000000001	-5.936719999999999	115.0	9	1.1	0.9	0.0	0.0	0.0	0.0
	1083	1	39.95	11.32	0.0	32.03	1	1.03	-9.8632	115.0	9	1.1	0.9	0.0	0.0	0.0	0.0
	1084	2	0.0	0.0	0.0	0.0	1	1.03696	-16.3943	115.0	9	1.1	0.9	0.0	0.0	0.0	0.0
	1085	1	21.3	6.03	0.0	0.0	1	1.01578	-15.0727	115.0	9	1.1	0.9	0.0	0.0	0.0	0.0
	1086	1	39.67	11.24	0.0	37.39	1	1.03	-17.3999	115.0	9	1.1	0.9	0.0	0.0	0.0	0.0
	1087	1	0.91	0.26	0.0	4.9	1	1.03	-16.049	115.0	9	1.1	0.9	0.0	0.0	0.0	0.0
	1088	2	0.0	0.0	0.0	0.0	1	1.0	-11.7123	115.0	9	1.1	0.9	0.0	0.0	0.0	0.0
	1089	1	40.6	11.5	0.0	0.0	1	0.9878979999999999	-21.4551	115.0	9	1.1	0.9	0.0	0.0	0.0	0.0
	1090	2	0.0	0.0	0.0	0.0	1	1.02	-15.7262	115.0	9	1.1	0.9	0.0	0.0	0.0	0.0
	1091	1	11.62	3.29	0.0	0.0	1	1.03131	-31.796999999999997	161.0	9	1.1	0.9	0.0	0.0	0.0	0.0
	2001	1	48.36	13.699999999999998	0.0	0.0	2	1.00763	-59.6547	161.0	11	1.1	0.9	0.0	0.0	0.0	0.0
	2002	1	0.0	0.0	0.0	0.0	2	1.02037	-61.15600000000001	500.0	11	1.1	0.9	0.0	0.0	0.0	0.0
	2003	1	0.0	0.0	0.0	0.0	2	1.02225	-63.38	161.0	11	1.1	0.9	0.0	0.0	0.0	0.0
	2004	1	0.0	0.0	0.0	0.0	2	1.02037	-61.15600000000001	13.8	11	1.1	0.9	0.0	0.0	0.0	0.0
	2005	1	0.0	0.0	0.0	0.0	2	1.02037	-61.15600000000001	13.8	11	1.1	0.9	0.0	0.0	0.0	0.0
	2006	1	0.0	0.0	0.0	0.0	2	1.02037	-61.15600000000001	13.8	11	1.1	0.9	0.0	0.0	0.0	0.0
	2007	1	9.54	2.7	0.0	0.0	2	1.00899	-59.42269999999999	161.0	11	1.1	0.9	0.0	0.0	0.0	0.0
	2008	1	8.06	2.28	0.0	0.0	2	1.01365	-33.769	161.0	10	1.1	0.9	0.0	0.0	0.0	0.0
	2009	1	39.14	11.09	0.0	131.5	2	1.03	-45.1637	161.0	11	1.1	0.9	0.0	0.0	0.0	0.0
	2010	1	56.81	16.09	0.0	28.689999999999998	2	1.03	-36.6402	161.0	10	1.1	0.9	0.0	0.0	0.0	0.0
	2011	1	0.0	0.0	0.0	0.0	2	1.02976	-33.0724	500.0	10	1.1	0.9	0.0	0.0	0.0	0.0
	2012	1	0.0	0.0	0.0	0.0	2	1.02029	-30.8629	161.0	10	1.1	0.9	0.0	0.0	0.0	0.0
	2013	2	0.0	0.0	0.0	0.0	2	1.0213	-30.690400000000004	18.0	10	1.1	0.9	0.0	0.0	0.0	0.0
	2014	1	25.429999999999996	7.200000000000001	0.0	0.0	2	1.01454	-34.2962	161.0	10	1.1	0.9	0.0	0.0	0.0	0.0
	2015	1	4.69	1.33	0.0	0.0	2	1.0155299999999998	-62.774699999999996	161.0	11	1.1	0.9	0.0	0.0	0.0	0.0
	2016	1	69.27	19.63	0.0	0.0	2	1.02042	-69.30440000000002	161.0	11	1.1	0.9	0.0	0.0	0.0	0.0
	2017	1	0.0	0.0	0.0	-17.18	2	1.03	-33.7017	500.0	10	1.1	0.9	0.0	0.0	0.0	0.0
	2018	1	0.0	0.0	0.0	0.0	2	1.0248	-32.7849	161.0	10	1.1	0.9	0.0	0.0	0.0	0.0
	2019	1	0.0	0.0	0.0	0.0	2	1.03	-33.7017	20.0	10	1.1	0.9	0.0	0.0	0.0	0.0
	2020	1	47.97	13.59	0.0	0.0	2	1.00043	-44.7529	161.0	11	1.1	0.9	0.0	0.0	0.0	0.0
	2021	1	0.0	0.0	0.0	0.0	2	1.01872	-56.4272	500.0	11	1.1	0.9	0.0	0.0	0.0	0.0
	2022	1	11.56	3.2799999999999994	0.0	0.0	2	1.01557	-58.328	161.0	11	1.1	0.9	0.0	0.0	0.0	0.0
	2023	2	0.0	0.0	0.0	0.0	2	1.02	-54.8654	13.8	11	1.1	0.9	0.0	0.0	0.0	0.0
	2024	2	0.0	0.0	0.0	0.0	2	1.02	-54.2025	13.8	11	1.1	0.9	0.0	0.0	0.0	0.0
	2025	1	39.62	11.23	0.0	0.0	2	0.9986360000000001	-43.98610000000001	161.0	11	1.1	0.9	0.0	0.0	0.0	0.0
	2026	1	18.57	5.26	0.0	0.0	2	1.01785	-32.0436	161.0	10	1.1	0.9	0.0	0.0	0.0	0.0
	2027	1	3.55	1.01	0.0	0.0	2	1.00835	-60.0775	161.0	11	1.1	0.9	0.0	0.0	0.0	0.0
	2028	1	14.24	4.03	0.0	0.0	2	1.00149	-47.0922	161.0	11	1.1	0.9	0.0	0.0	0.0	0.0
	2029	1	3.2	0.91	0.0	0.0	2	1.02213	-33.6311	161.0	10	1.1	0.9	0.0	0.0	0.0	0.0
	2030	1	47.15	13.36	0.0	0.0	2	0.9974430000000001	-63.6035	161.0	11	1.1	0.9	0.0	0.0	0.0	0.0
	2031	1	5.77	1.63	0.0	0.0	2	1.02762	-30.050700000000003	161.0	10	1.1	0.9	0.0	0.0	0.0	0.0
	2032	1	3.35	0.95	0.0	0.0	2	1.01071	-58.83140000000001	161.0	11	1.1	0.9	0.0	0.0	0.0	0.0
	2033	1	13.570000000000002	3.85	0.0	0.0	2	1.0011700000000001	-65.0675	161.0	11	1.1	0.9	0.0	0.0	0.0	0.0
	2034	1	5.34	1.51	0.0	0.0	2	1.0241	-68.7088	161.0	11	1.1	0.9	0.0	0.0	0.0	0.0
	2035	1	4.68	1.33	0.0	0.0	2	1.02346	-30.7776	161.0	10	1.1	0.9	0.0	0.0	0.0	0.0
	2036	1	41.59	11.78	0.0	0.0	2	1.00453	-44.3686	161.0	11	1.1	0.9	0.0	0.0	0.0	0.0
	2037	1	3.5000000000000004	0.9899999999999999	0.0	0.0	2	1.0265799999999998	-63.10360000000001	161.0	11	1.1	0.9	0.0	0.0	0.0	0.0
	2038	1	2.6	0.74	0.0	0.0	2	1.01892	-63.840500000000006	161.0	11	1.1	0.9	0.0	0.0	0.0	0.0
	2039	1	5.56	1.58	0.0	0.0	2	0.999397	-60.1949	161.0	11	1.1	0.9	0.0	0.0	0.0	0.0
	2040	1	15.9	4.51	0.0	0.0	2	1.01324	-58.99249999999999	161.0	11	1.1	0.9	0.0	0.0	0.0	0.0
	2041	1	0.0	0.0	0.0	0.0	2	1.02091	-28.6419	161.0	10	1.1	0.9	0.0	0.0	0.0	0.0
	2042	2	0.0	0.0	0.0	0.0	2	1.01224	-26.0302	18.0	10	1.1	0.9	0.0	0.0	0.0	0.0
	2043	1	4.24	1.2	0.0	0.0	2	1.02242	-68.9815	161.0	11	1.1	0.9	0.0	0.0	0.0	0.0
	2044	1	27.399999999999995	7.76	0.0	0.0	2	1.02315	-64.8321	161.0	11	1.1	0.9	0.0	0.0	0.0	0.0
	2045	1	22.61	6.4	0.0	0.0	2	1.00004	-45.2865	161.0	11	1.1	0.9	0.0	0.0	0.0	0.0
	2046	1	22.13	6.27	0.0	0.0	2	1.02626	-68.36210000000001	161.0	11	1.1	0.9	0.0	0.0	0.0	0.0
	2047	1	14.96	4.24	0.0	0.0	2	1.02278	-64.2739	161.0	11	1.1	0.9	0.0	0.0	0.0	0.0
	2048	1	6.419999999999999	1.82	0.0	0.0	2	1.03121	-32.2466	161.0	10	1.1	0.9	0.0	0.0	0.0	0.0
	2049	1	11.57	3.2799999999999994	0.0	0.0	2	1.02452	-40.9774	161.0	10	1.1	0.9	0.0	0.0	0.0	0.0
	2050	1	3.66	1.04	0.0	0.0	2	1.00214	-62.8326	161.0	11	1.1	0.9	0.0	0.0	0.0	0.0
	2051	1	17.85	5.06	0.0	0.0	2	0.997416	-53.8317	161.0	11	1.1	0.9	0.0	0.0	0.0	0.0
	2052	1	24.84	7.04	0.0	0.0	2	1.01285	-32.9355	161.0	10	1.1	0.9	0.0	0.0	0.0	0.0
	2053	1	29.13	8.25	0.0	0.0	2	0.9978870000000001	-58.873900000000006	161.0	11	1.1	0.9	0.0	0.0	0.0	0.0
	2054	1	0.0	0.0	0.0	0.0	2	1.0021	-43.019	500.0	11	1.1	0.9	0.0	0.0	0.0	0.0
	2055	1	49.62	14.06	0.0	0.0	2	1.0021200000000001	-43.8374	161.0	11	1.1	0.9	0.0	0.0	0.0	0.0
	2056	1	0.0	0.0	0.0	0.0	2	1.0021	-43.019	18.0	11	1.1	0.9	0.0	0.0	0.0	0.0
	2057	2	0.0	0.0	0.0	0.0	2	0.99	-38.5807	18.0	11	1.1	0.9	0.0	0.0	0.0	0.0
	2058	1	0.0	0.0	0.0	0.0	2	1.02098	-28.1995	161.0	10	1.1	0.9	0.0	0.0	0.0	0.0
	2059	2	0.0	0.0	0.0	0.0	2	1.01088	-24.804100000000002	13.8	10	1.1	0.9	0.0	0.0	0.0	0.0
	2060	1	3.8	1.08	0.0	0.0	2	1.0048700000000002	-61.5725	161.0	11	1.1	0.9	0.0	0.0	0.0	0.0
	2061	1	0.0	0.0	0.0	0.0	2	1.02539	-37.5061	161.0	10	1.1	0.9	0.0	0.0	0.0	0.0
	2062	2	0.0	0.0	0.0	0.0	2	1.02	-35.2095	18.0	10	1.1	0.9	0.0	0.0	0.0	0.0
	2063	2	65.62	18.59	0.0	67.92	2	1.03	-67.7692	161.0	11	1.1	0.9	0.0	0.0	0.0	0.0
	2064	1	10.05	2.85	0.0	0.0	2	1.00958	-59.9362	161.0	11	1.1	0.9	0.0	0.0	0.0	0.0
	2065	1	78.36	22.2	0.0	90.13	2	1.03	-65.0297	161.0	11	1.1	0.9	0.0	0.0	0.0	0.0
	2066	1	7.109999999999999	2.02	0.0	0.0	2	1.02193	-27.8431	161.0	10	1.1	0.9	0.0	0.0	0.0	0.0
	2067	1	53.97	15.289999999999997	0.0	0.0	2	0.996598	-43.8923	161.0	11	1.1	0.9	0.0	0.0	0.0	0.0
	2068	1	5.76	1.63	0.0	0.0	2	1.0018200000000002	-41.8037	161.0	11	1.1	0.9	0.0	0.0	0.0	0.0
	2069	1	21.92	6.21	0.0	87.65	2	1.03	-68.4425	161.0	11	1.1	0.9	0.0	0.0	0.0	0.0
	2070	1	0.0	0.0	0.0	0.0	2	1.00369	-41.3643	161.0	11	1.1	0.9	0.0	0.0	0.0	0.0
	2071	2	0.0	0.0	0.0	0.0	2	1.0	-37.6921	18.0	11	1.1	0.9	0.0	0.0	0.0	0.0
	2072	1	9.71	2.75	0.0	0.0	2	1.02499	-66.6315	161.0	11	1.1	0.9	0.0	0.0	0.0	0.0
	2073	1	0.0	0.0	0.0	0.0	2	1.02241	-25.3215	161.0	10	1.1	0.9	0.0	0.0	0.0	0.0
	2074	1	0.0	0.0	0.0	0.0	2	1.0119	-23.4345	115.0	10	1.1	0.9	0.0	0.0	0.0	0.0
	2075	1	0.0	0.0	0.0	0.0	2	1.0119	-23.4345	115.0	10	1.1	0.9	0.0	0.0	0.0	0.0
	2076	2	0.0	0.0	0.0	0.0	2	1.0276399999999999	-24.4269	24.0	10	1.1	0.9	0.0	0.0	0.0	0.0
	2077	1	0.0	0.0	0.0	0.0	2	1.02635	-60.71820000000001	161.0	11	1.1	0.9	0.0	0.0	0.0	0.0
	2078	2	0.0	0.0	0.0	0.0	2	1.02	-57.4097	13.8	11	1.1	0.9	0.0	0.0	0.0	0.0
	2079	1	4.48	1.27	0.0	0.0	2	1.0314	-34.9863	161.0	10	1.1	0.9	0.0	0.0	0.0	0.0
	2080	1	16.93	4.8	0.0	0.0	2	1.0027700000000002	-57.1098	161.0	11	1.1	0.9	0.0	0.0	0.0	0.0
	2081	1	4.46	1.26	0.0	0.0	2	1.01291	-64.6264	161.0	11	1.1	0.9	0.0	0.0	0.0	0.0
	2082	1	59.03	16.73	0.0	0.0	2	1.0093299999999998	-44.7232	161.0	11	1.1	0.9	0.0	0.0	0.0	0.0
	2083	2	0.0	0.0	0.0	0.0	2	1.02	-43.148999999999994	20.0	11	1.1	0.9	0.0	0.0	0.0	0.0
	2084	1	0.0	0.0	0.0	0.0	2	1.0093299999999998	-44.7232	20.0	11	1.1	0.9	0.0	0.0	0.0	0.0
	2085	1	0.0	0.0	0.0	0.0	2	1.0093299999999998	-44.7232	20.0	11	1.1	0.9	0.0	0.0	0.0	0.0
	2086	1	2.19	0.62	0.0	0.0	2	1.00062	-59.03150000000001	161.0	11	1.1	0.9	0.0	0.0	0.0	0.0
	2087	1	7.9	2.24	0.0	0.0	2	1.02436	-27.7781	161.0	10	1.1	0.9	0.0	0.0	0.0	0.0
	2088	1	0.0	0.0	0.0	0.0	2	1.00271	-41.4958	161.0	11	1.1	0.9	0.0	0.0	0.0	0.0
	2089	2	0.0	0.0	0.0	0.0	2	1.0	-37.8993	24.0	11	1.1	0.9	0.0	0.0	0.0	0.0
	2090	1	2.42	0.69	0.0	0.0	2	1.00915	-60.68399999999999	161.0	11	1.1	0.9	0.0	0.0	0.0	0.0
	2091	1	17.05	4.83	0.0	0.0	2	1.02547	-34.1974	161.0	10	1.1	0.9	0.0	0.0	0.0	0.0
	2092	1	24.11	6.83	0.0	0.0	2	1.02467	-66.0988	161.0	11	1.1	0.9	0.0	0.0	0.0	0.0
	2093	1	0.0	0.0	0.0	0.0	2	1.02282	-31.774400000000004	161.0	10	1.1	0.9	0.0	0.0	0.0	0.0
	2094	1	0.0	0.0	0.0	0.0	2	1.02282	-31.774400000000004	13.8	10	1.1	0.9	0.0	0.0	0.0	0.0
	2095	1	0.0	0.0	0.0	0.0	2	1.02282	-31.774400000000004	13.8	10	1.1	0.9	0.0	0.0	0.0	0.0
	2096	1	0.0	0.0	0.0	-63.13999999999999	2	1.03	-29.0256	500.0	10	1.1	0.9	0.0	0.0	0.0	0.0
	2097	1	0.0	0.0	0.0	0.0	2	1.02852	-28.3891	230.0	10	1.1	0.9	0.0	0.0	0.0	0.0
	2098	1	0.0	0.0	0.0	0.0	2	1.03246	-31.260299999999997	161.0	10	1.1	0.9	0.0	0.0	0.0	0.0
	2099	2	0.0	0.0	0.0	0.0	2	1.0295299999999998	-28.8845	18.0	10	1.1	0.9	0.0	0.0	0.0	0.0
	2100	2	0.0	0.0	0.0	0.0	2	1.0208	-26.4196	18.0	10	1.1	0.9	0.0	0.0	0.0	0.0
	2101	1	0.0	0.0	0.0	0.0	2	1.02049	-62.21589999999999	500.0	11	1.1	0.9	0.0	0.0	0.0	0.0
	2102	1	0.0	0.0	0.0	0.0	2	1.02071	-63.616800000000005	161.0	11	1.1	0.9	0.0	0.0	0.0	0.0
	2103	1	0.0	0.0	0.0	0.0	2	1.02049	-62.21589999999999	20.0	11	1.1	0.9	0.0	0.0	0.0	0.0
	2104	1	0.0	0.0	0.0	0.0	2	1.02049	-62.21589999999999	20.0	11	1.1	0.9	0.0	0.0	0.0	0.0
	2105	1	0.0	0.0	0.0	0.0	2	1.02049	-62.21589999999999	20.0	11	1.1	0.9	0.0	0.0	0.0	0.0
	2106	1	14.400000000000002	4.08	0.0	0.0	2	1.00011	-65.6877	161.0	11	1.1	0.9	0.0	0.0	0.0	0.0
	2107	1	74.15	21.01	0.0	0.0	2	1.0155299999999998	-64.4635	161.0	11	1.1	0.9	0.0	0.0	0.0	0.0
	2108	1	2.14	0.61	0.0	0.0	2	1.00948	-43.368	161.0	10	1.1	0.9	0.0	0.0	0.0	0.0
	2109	1	33.81	9.58	0.0	0.0	2	1.0154	-46.256	161.0	11	1.1	0.9	0.0	0.0	0.0	0.0
	2110	1	8.59	2.43	0.0	51.92	2	1.03	-61.781099999999995	161.0	11	1.1	0.9	0.0	0.0	0.0	0.0
	2111	1	13.95	3.95	0.0	0.0	2	1.00223	-48.5817	161.0	11	1.1	0.9	0.0	0.0	0.0	0.0
	2112	1	4.54	1.29	0.0	0.0	2	0.9989030000000001	-49.1768	161.0	11	1.1	0.9	0.0	0.0	0.0	0.0
	2113	1	0.0	0.0	0.0	0.0	2	1.01851	-55.9724	500.0	11	1.1	0.9	0.0	0.0	0.0	0.0
	2114	1	70.78	20.05	0.0	0.0	2	1.01657	-57.2353	161.0	11	1.1	0.9	0.0	0.0	0.0	0.0
	2115	2	0.0	0.0	0.0	0.0	2	1.00968	-52.0112	13.8	11	1.1	0.9	0.0	0.0	0.0	0.0
	2116	2	0.0	0.0	0.0	0.0	2	1.0143	-53.9199	13.8	11	1.1	0.9	0.0	0.0	0.0	0.0
	2117	2	0.0	0.0	0.0	0.0	2	1.0069700000000001	-51.3772	13.8	11	1.1	0.9	0.0	0.0	0.0	0.0
	2118	2	0.0	0.0	0.0	0.0	2	1.0056100000000001	-50.8736	13.8	11	1.1	0.9	0.0	0.0	0.0	0.0
	2119	2	0.0	0.0	0.0	0.0	2	1.0132299999999999	-53.4711	13.8	11	1.1	0.9	0.0	0.0	0.0	0.0
	2120	2	0.0	0.0	0.0	0.0	2	1.01	-51.096000000000004	13.8	11	1.1	0.9	0.0	0.0	0.0	0.0
	2121	1	2.33	0.66	0.0	0.0	2	1.01221	-59.6141	161.0	11	1.1	0.9	0.0	0.0	0.0	0.0
	2122	1	6.72	1.9	0.0	0.0	2	1.00367	-60.784200000000006	161.0	11	1.1	0.9	0.0	0.0	0.0	0.0
	2123	2	0.0	0.0	0.0	0.0	2	1.02136	-27.973200000000002	161.0	10	1.1	0.9	0.0	0.0	0.0	0.0
	2124	1	21.29	6.03	0.0	0.0	2	0.9995569999999999	-66.7212	161.0	11	1.1	0.9	0.0	0.0	0.0	0.0
	2125	1	4.06	1.15	0.0	0.0	2	1.0048700000000002	-66.7148	161.0	11	1.1	0.9	0.0	0.0	0.0	0.0
	2126	1	14.24	4.03	0.0	0.0	2	1.01837	-66.3852	161.0	11	1.1	0.9	0.0	0.0	0.0	0.0
	2127	2	0.0	0.0	0.0	-361.6	2	1.03014	-34.9497	500.0	10	1.1	0.9	0.0	0.0	0.0	0.0
	2128	1	0.0	0.0	0.0	0.0	2	1.02085	-33.4452	161.0	10	1.1	0.9	0.0	0.0	0.0	0.0
	2129	1	6.63	1.8799999999999997	0.0	0.0	2	1.00327	-65.6053	161.0	11	1.1	0.9	0.0	0.0	0.0	0.0
	2130	1	0.0	0.0	0.0	0.0	2	1.0117	-42.005100000000006	161.0	10	1.1	0.9	0.0	0.0	0.0	0.0
	2131	1	0.0	0.0	0.0	0.0	2	1.00727	-39.4573	115.0	10	1.1	0.9	0.0	0.0	0.0	0.0
	2132	1	11.94	3.38	0.0	12.36	2	1.03	-41.1534	115.0	10	1.1	0.9	0.0	0.0	0.0	0.0
	2133	1	5.68	1.6099999999999999	0.0	0.0	2	1.02131	-60.060100000000006	161.0	11	1.1	0.9	0.0	0.0	0.0	0.0
	3001	1	0.0	0.0	0.0	0.0	3	1.01394	-55.2426	230.0	28	1.1	0.9	0.0	0.0	0.0	0.0
	3002	1	112.86	31.980000000000004	0.0	0.0	3	1.00197	-57.6723	115.0	28	1.1	0.9	0.0	0.0	0.0	0.0
	3003	1	0.0	0.0	0.0	0.0	3	1.01934	-18.195999999999998	115.0	27	1.1	0.9	0.0	0.0	0.0	0.0
	3004	2	0.0	0.0	0.0	0.0	3	1.01447	-16.6113	18.0	27	1.1	0.9	0.0	0.0	0.0	0.0
	3005	1	7.339999999999999	2.08	0.0	0.0	3	1.02009	-57.6274	115.0	28	1.1	0.9	0.0	0.0	0.0	0.0
	3006	1	7.35	2.08	0.0	0.0	3	1.00905	-26.8154	115.0	27	1.1	0.9	0.0	0.0	0.0	0.0
	3007	1	14.96	4.24	0.0	0.0	3	1.02111	-24.6421	115.0	27	1.1	0.9	0.0	0.0	0.0	0.0
	3008	1	19.81	5.61	0.0	0.0	3	1.01116	-36.9382	115.0	27	1.1	0.9	0.0	0.0	0.0	0.0
	3009	1	12.54	3.55	0.0	0.0	3	1.02357	-30.910499999999995	115.0	28	1.1	0.9	0.0	0.0	0.0	0.0
	3010	1	4.67	1.32	0.0	0.0	3	1.00258	-56.5749	115.0	28	1.1	0.9	0.0	0.0	0.0	0.0
	3011	1	27.140000000000004	7.690000000000001	0.0	0.0	3	1.01711	-60.598200000000006	115.0	28	1.1	0.9	0.0	0.0	0.0	0.0
	3012	1	0.56	0.16	0.0	0.0	3	1.01844	-60.19840000000001	115.0	28	1.1	0.9	0.0	0.0	0.0	0.0
	3013	1	64.56	18.29	0.0	77.48	3	1.03	-28.4858	115.0	27	1.1	0.9	0.0	0.0	0.0	0.0
	3014	1	22.0	6.23	0.0	0.0	3	1.02121	-52.8315	115.0	28	1.1	0.9	0.0	0.0	0.0	0.0
	3015	1	5.36	1.52	0.0	0.0	3	1.0166600000000001	-17.0403	115.0	27	1.1	0.9	0.0	0.0	0.0	0.0
	3016	1	0.0	0.0	0.0	0.0	3	1.01401	-21.867800000000003	115.0	27	1.1	0.9	0.0	0.0	0.0	0.0
	3017	2	0.0	0.0	0.0	0.0	3	1.01	-16.6819	18.0	27	1.1	0.9	0.0	0.0	0.0	0.0
	3018	1	0.0	0.0	0.0	0.0	3	1.03124	-28.834000000000003	230.0	27	1.1	0.9	0.0	0.0	0.0	0.0
	3019	1	0.0	0.0	0.0	26.090000000000003	3	1.03	-30.4293	115.0	27	1.1	0.9	0.0	0.0	0.0	0.0
	3020	2	0.0	0.0	0.0	0.0	3	1.03	-24.7166	13.8	27	1.1	0.9	0.0	0.0	0.0	0.0
	3021	1	1.94	0.55	0.0	0.0	3	1.01001	-35.5341	115.0	27	1.1	0.9	0.0	0.0	0.0	0.0
	3022	1	24.59	6.97	0.0	0.0	3	1.00029	-18.222	115.0	27	1.1	0.9	0.0	0.0	0.0	0.0
	3023	1	10.41	2.95	0.0	50.16	3	1.03	-26.9955	115.0	27	1.1	0.9	0.0	0.0	0.0	0.0
	3024	1	10.13	2.87	0.0	0.0	3	1.0264799999999998	-30.8711	115.0	28	1.1	0.9	0.0	0.0	0.0	0.0
	3025	1	13.669999999999998	3.8699999999999997	0.0	0.0	3	1.00594	-45.0315	115.0	28	1.1	0.9	0.0	0.0	0.0	0.0
	3026	1	0.0	0.0	0.0	0.0	3	1.0307600000000001	-36.5041	230.0	27	1.1	0.9	0.0	0.0	0.0	0.0
	3027	1	0.0	0.0	0.0	0.0	3	1.0256100000000001	-37.0818	115.0	27	1.1	0.9	0.0	0.0	0.0	0.0
	3028	2	0.0	0.0	0.0	0.0	3	1.04	-33.9232	18.0	27	1.1	0.9	0.0	0.0	0.0	0.0
	3029	1	4.87	1.38	0.0	0.0	3	1.0312	-53.1536	115.0	28	1.1	0.9	0.0	0.0	0.0	0.0
	3030	1	129.72	36.75	0.0	93.06	3	1.03	-39.7528	115.0	27	1.1	0.9	0.0	0.0	0.0	0.0
	3031	1	14.730000000000002	4.17	0.0	0.0	3	1.00478	-26.1305	115.0	27	1.1	0.9	0.0	0.0	0.0	0.0
	3032	1	72.86	20.64	0.0	0.0	3	1.00744	-26.9905	115.0	27	1.1	0.9	0.0	0.0	0.0	0.0
	3033	1	0.0	0.0	0.0	0.0	3	1.00965	-15.2038	115.0	27	1.1	0.9	0.0	0.0	0.0	0.0
	3034	2	0.0	0.0	0.0	0.0	3	1.03	-5.9429300000000005	22.0	27	1.1	0.9	0.0	0.0	0.0	0.0
	3035	1	3.47	0.98	0.0	0.0	3	1.00898	-44.1638	115.0	28	1.1	0.9	0.0	0.0	0.0	0.0
	3036	1	5.8	1.6399999999999997	0.0	0.0	3	1.0087899999999999	-41.4374	115.0	28	1.1	0.9	0.0	0.0	0.0	0.0
	3037	1	0.0	0.0	0.0	0.0	3	1.0306600000000001	-25.5587	230.0	27	1.1	0.9	0.0	0.0	0.0	0.0
	3038	1	0.0	0.0	0.0	0.0	3	1.0095100000000001	-20.2065	115.0	27	1.1	0.9	0.0	0.0	0.0	0.0
	3039	2	0.0	0.0	0.0	0.0	3	1.04	-22.986800000000002	13.8	27	1.1	0.9	0.0	0.0	0.0	0.0
	3040	1	14.610000000000001	4.14	0.0	0.0	3	1.00407	-34.1646	115.0	27	1.1	0.9	0.0	0.0	0.0	0.0
	3041	1	0.0	0.0	0.0	0.0	3	1.0282799999999999	-29.0456	230.0	27	1.1	0.9	0.0	0.0	0.0	0.0
	3042	1	8.75	2.48	0.0	0.0	3	1.00968	-18.741	115.0	27	1.1	0.9	0.0	0.0	0.0	0.0
	3043	1	0.0	0.0	0.0	0.0	3	1.0282799999999999	-29.0456	13.8	27	1.1	0.9	0.0	0.0	0.0	0.0
	3044	1	0.0	0.0	0.0	0.0	3	1.0282799999999999	-29.0456	13.8	27	1.1	0.9	0.0	0.0	0.0	0.0
	3045	1	0.0	0.0	0.0	0.0	3	1.0282799999999999	-29.0456	13.8	27	1.1	0.9	0.0	0.0	0.0	0.0
	3046	1	0.0	0.0	0.0	376.63	3	1.03	-34.408	230.0	27	1.1	0.9	0.0	0.0	0.0	0.0
	3047	1	0.0	0.0	0.0	102.99000000000001	3	1.03	-20.5349	115.0	27	1.1	0.9	0.0	0.0	0.0	0.0
	3048	2	0.0	0.0	0.0	0.0	3	1.02683	-41.0806	500.0	27	1.1	0.9	0.0	0.0	0.0	0.0
	3049	1	10.58	3.0	0.0	0.0	3	1.0104799999999998	-29.945700000000002	115.0	27	1.1	0.9	0.0	0.0	0.0	0.0
	3050	2	0.0	0.0	0.0	32.43	3	1.03	-33.6175	230.0	28	1.1	0.9	0.0	0.0	0.0	0.0
	3051	1	145.29	41.17	0.0	60.74	3	1.03	-35.4467	115.0	28	1.1	0.9	0.0	0.0	0.0	0.0
	3052	1	8.08	2.29	0.0	0.0	3	1.00631	-58.04659999999999	115.0	28	1.1	0.9	0.0	0.0	0.0	0.0
	3053	1	0.0	0.0	0.0	0.0	3	1.0319399999999999	-27.0011	230.0	27	1.1	0.9	0.0	0.0	0.0	0.0
	3054	1	0.0	0.0	0.0	0.0	3	1.01295	-26.5611	115.0	27	1.1	0.9	0.0	0.0	0.0	0.0
	3055	2	0.0	0.0	0.0	0.0	3	1.04	-24.119900000000005	13.8	27	1.1	0.9	0.0	0.0	0.0	0.0
	3056	2	0.0	0.0	0.0	0.0	3	1.04	-21.5456	13.8	27	1.1	0.9	0.0	0.0	0.0	0.0
	3057	2	0.0	0.0	0.0	0.0	3	1.04	-21.708800000000004	13.8	27	1.1	0.9	0.0	0.0	0.0	0.0
	3058	1	0.0	0.0	0.0	0.0	3	1.0347	-23.8007	230.0	27	1.1	0.9	0.0	0.0	0.0	0.0
	3059	1	0.0	0.0	0.0	0.0	3	1.0155299999999998	-17.2068	115.0	27	1.1	0.9	0.0	0.0	0.0	0.0
	3060	2	0.0	0.0	0.0	0.0	3	1.04	-16.2507	18.0	27	1.1	0.9	0.0	0.0	0.0	0.0
	3061	2	0.0	0.0	0.0	0.0	3	1.04	-18.4164	18.0	27	1.1	0.9	0.0	0.0	0.0	0.0
	3062	2	0.0	0.0	0.0	0.0	3	1.04	-21.0873	18.0	27	1.1	0.9	0.0	0.0	0.0	0.0
	3063	2	0.0	0.0	0.0	0.0	3	1.04	-19.9373	18.0	27	1.1	0.9	0.0	0.0	0.0	0.0
	3064	1	0.0	0.0	0.0	0.0	3	1.0227	-18.4501	115.0	27	1.1	0.9	0.0	0.0	0.0	0.0
	3065	2	0.0	0.0	0.0	0.0	3	1.00149	-12.3672	18.0	27	1.1	0.9	0.0	0.0	0.0	0.0
	3066	1	22.03	6.24	0.0	0.0	3	1.01441	-42.4272	115.0	28	1.1	0.9	0.0	0.0	0.0	0.0
	3067	1	0.0	0.0	0.0	0.0	3	1.02965	-19.752	115.0	27	1.1	0.9	0.0	0.0	0.0	0.0
	3068	2	0.0	0.0	0.0	0.0	3	1.04	-16.8611	20.0	27	1.1	0.9	0.0	0.0	0.0	0.0
	3069	1	3.81	1.08	0.0	0.0	3	1.00735	-29.466600000000003	115.0	27	1.1	0.9	0.0	0.0	0.0	0.0
	3070	1	0.0	0.0	0.0	0.0	3	1.0209	-21.0159	115.0	27	1.1	0.9	0.0	0.0	0.0	0.0
	3071	2	0.0	0.0	0.0	0.0	3	1.0064899999999999	-16.4502	24.0	27	1.1	0.9	0.0	0.0	0.0	0.0
	3072	1	5.98	1.7000000000000002	0.0	0.0	3	1.02053	-38.3795	115.0	27	1.1	0.9	0.0	0.0	0.0	0.0
	3073	1	0.0	0.0	0.0	0.0	3	1.00407	-53.7129	115.0	28	1.1	0.9	0.0	0.0	0.0	0.0
	3074	2	0.0	0.0	0.0	0.0	3	1.0	-51.1938	13.8	28	1.1	0.9	0.0	0.0	0.0	0.0
	3075	1	12.18	3.45	0.0	0.0	3	1.01484	-39.9666	115.0	28	1.1	0.9	0.0	0.0	0.0	0.0
	3076	1	10.79	3.06	0.0	0.0	3	1.00129	-55.1719	115.0	28	1.1	0.9	0.0	0.0	0.0	0.0
	3077	1	68.66	19.45	0.0	0.0	3	1.0097	-27.9462	115.0	27	1.1	0.9	0.0	0.0	0.0	0.0
	3078	1	0.0	0.0	0.0	0.0	3	1.02728	-25.9331	230.0	27	1.1	0.9	0.0	0.0	0.0	0.0
	3079	1	0.0	0.0	0.0	0.0	3	1.02179	-24.2325	161.0	27	1.1	0.9	0.0	0.0	0.0	0.0
	3080	1	0.0	0.0	0.0	0.0	3	1.01057	-21.2967	115.0	27	1.1	0.9	0.0	0.0	0.0	0.0
	3081	2	0.0	0.0	0.0	0.0	3	1.04	-19.8742	20.0	27	1.1	0.9	0.0	0.0	0.0	0.0
	3082	1	0.0	0.0	0.0	0.0	3	1.02606	-27.8671	230.0	27	1.1	0.9	0.0	0.0	0.0	0.0
	3083	1	0.0	0.0	0.0	0.0	3	1.01821	-24.1296	115.0	27	1.1	0.9	0.0	0.0	0.0	0.0
	3084	2	0.0	0.0	0.0	0.0	3	1.0	-18.070999999999998	13.8	27	1.1	0.9	0.0	0.0	0.0	0.0
	3085	1	0.0	0.0	0.0	0.0	3	1.0085899999999999	-18.5238	115.0	27	1.1	0.9	0.0	0.0	0.0	0.0
	3086	2	0.0	0.0	0.0	0.0	3	1.0	-11.6016	13.2	27	1.1	0.9	0.0	0.0	0.0	0.0
	3087	1	0.0	0.0	0.0	0.0	3	1.0085899999999999	-18.5238	13.2	27	1.1	0.9	0.0	0.0	0.0	0.0
	3088	1	0.0	0.0	0.0	81.1	3	1.03	-33.0224	230.0	27	1.1	0.9	0.0	0.0	0.0	0.0
	3089	1	0.0	0.0	0.0	0.0	3	1.02954	-35.6426	161.0	27	1.1	0.9	0.0	0.0	0.0	0.0
	3090	1	0.0	0.0	0.0	0.0	3	1.0296299999999998	-36.3006	161.0	27	1.1	0.9	0.0	0.0	0.0	0.0
	3091	1	0.0	0.0	0.0	82.39	3	1.03	-37.1882	115.0	27	1.1	0.9	0.0	0.0	0.0	0.0
	3092	2	0.0	0.0	0.0	0.0	3	1.04	-26.234	13.8	27	1.1	0.9	0.0	0.0	0.0	0.0
	3093	1	5.05	1.43	0.0	0.0	3	1.00411	-57.39670000000001	115.0	28	1.1	0.9	0.0	0.0	0.0	0.0
	3094	1	0.0	0.0	0.0	0.0	3	1.01973	-23.186	115.0	27	1.1	0.9	0.0	0.0	0.0	0.0
	3095	2	0.0	0.0	0.0	0.0	3	1.04	-15.2853	18.0	27	1.1	0.9	0.0	0.0	0.0	0.0
	3096	1	0.0	0.0	0.0	0.0	3	1.02586	-22.072400000000002	230.0	27	1.1	0.9	0.0	0.0	0.0	0.0
	3097	1	0.0	0.0	0.0	0.0	3	1.0213	-20.189	115.0	27	1.1	0.9	0.0	0.0	0.0	0.0
	3098	2	0.0	0.0	0.0	0.0	3	1.04	-13.4352	13.8	27	1.1	0.9	0.0	0.0	0.0	0.0
	3099	1	12.08	3.42	0.0	0.0	3	1.00714	-28.7163	115.0	27	1.1	0.9	0.0	0.0	0.0	0.0
	3100	1	8.53	2.42	0.0	0.0	3	1.00991	-34.7397	115.0	27	1.1	0.9	0.0	0.0	0.0	0.0
	3101	1	9.43	2.67	0.0	0.0	3	1.01099	-47.4888	115.0	28	1.1	0.9	0.0	0.0	0.0	0.0
	3102	1	75.26	21.32	0.0	0.0	3	1.02053	-37.3257	115.0	27	1.1	0.9	0.0	0.0	0.0	0.0
	3103	1	39.32	11.14	0.0	0.0	3	1.0119200000000002	-20.6154	115.0	27	1.1	0.9	0.0	0.0	0.0	0.0
	3104	1	0.0	0.0	0.0	0.0	3	1.0167899999999999	-47.0589	115.0	28	1.1	0.9	0.0	0.0	0.0	0.0
	3105	2	0.0	0.0	0.0	0.0	3	1.0146600000000001	-41.5279	13.2	28	1.1	0.9	0.0	0.0	0.0	0.0
	3106	2	0.0	0.0	0.0	0.0	3	1.00797	-40.5068	13.2	28	1.1	0.9	0.0	0.0	0.0	0.0
	3107	1	14.87	4.21	0.0	0.0	3	1.00148	-58.1763	115.0	28	1.1	0.9	0.0	0.0	0.0	0.0
	3108	1	23.52	6.660000000000001	0.0	0.0	3	1.01282	-56.3197	115.0	28	1.1	0.9	0.0	0.0	0.0	0.0
	3109	1	0.0	0.0	0.0	0.0	3	1.02121	-18.7746	115.0	27	1.1	0.9	0.0	0.0	0.0	0.0
	3110	2	0.0	0.0	0.0	0.0	3	1.04	-11.287100000000002	13.8	27	1.1	0.9	0.0	0.0	0.0	0.0
	3111	1	0.0	0.0	0.0	0.0	3	1.01383	-16.3812	115.0	27	1.1	0.9	0.0	0.0	0.0	0.0
	3112	2	0.0	0.0	0.0	0.0	3	1.0	-8.24639	18.0	27	1.1	0.9	0.0	0.0	0.0	0.0
	3113	2	0.0	0.0	0.0	0.0	3	1.0	-8.24724	18.0	27	1.1	0.9	0.0	0.0	0.0	0.0
	3114	1	98.31	27.85	0.0	0.0	3	1.0186899999999999	-34.1489	115.0	27	1.1	0.9	0.0	0.0	0.0	0.0
	3115	1	9.58	2.71	0.0	0.0	3	1.00821	-22.105999999999998	115.0	27	1.1	0.9	0.0	0.0	0.0	0.0
	3116	1	0.0	0.0	0.0	0.0	3	1.00653	-15.4604	115.0	27	1.1	0.9	0.0	0.0	0.0	0.0
	3117	2	0.0	0.0	0.0	0.0	3	1.0	-12.4084	13.8	27	1.1	0.9	0.0	0.0	0.0	0.0
	3118	2	0.0	0.0	0.0	0.0	3	1.0	-11.4383	13.8	27	1.1	0.9	0.0	0.0	0.0	0.0
	3119	1	0.0	0.0	0.0	0.0	3	1.02919	-51.229000000000006	115.0	28	1.1	0.9	0.0	0.0	0.0	0.0
	3120	2	0.0	0.0	0.0	0.0	3	1.02957	-49.7703	13.8	28	1.1	0.9	0.0	0.0	0.0	0.0
	3121	1	0.0	0.0	0.0	0.0	3	1.0189700000000002	-16.455500000000004	115.0	27	1.1	0.9	0.0	0.0	0.0	0.0
	3122	2	0.0	0.0	0.0	0.0	3	1.0	-7.613160000000001	18.0	27	1.1	0.9	0.0	0.0	0.0	0.0
	3123	1	66.07	18.72	0.0	0.0	3	0.9979180000000001	-56.2395	115.0	28	1.1	0.9	0.0	0.0	0.0	0.0
	3124	1	64.54	18.29	0.0	44.55	3	1.03	-59.15729999999999	115.0	28	1.1	0.9	0.0	0.0	0.0	0.0
	3125	1	91.26	25.86	0.0	0.0	3	1.0138	-37.3555	115.0	27	1.1	0.9	0.0	0.0	0.0	0.0
	3126	1	9.96	2.82	0.0	40.24	3	1.03	-56.6971	115.0	28	1.1	0.9	0.0	0.0	0.0	0.0
	3127	2	0.0	0.0	0.0	0.0	3	1.02027	-16.4745	115.0	27	1.1	0.9	0.0	0.0	0.0	0.0
	3128	1	2.82	0.8	0.0	0.0	3	1.01183	-18.1412	115.0	27	1.1	0.9	0.0	0.0	0.0	0.0
	3129	2	0.0	0.0	0.0	0.0	3	1.02806	-16.9316	115.0	27	1.1	0.9	0.0	0.0	0.0	0.0
	3130	1	92.15	26.11	0.0	0.0	3	1.01462	-18.9606	115.0	27	1.1	0.9	0.0	0.0	0.0	0.0
	3131	2	0.0	0.0	0.0	0.0	3	1.02	-22.0139	115.0	27	1.1	0.9	0.0	0.0	0.0	0.0
	3132	1	9.56	2.71	0.0	0.0	3	1.01606	-40.0732	115.0	28	1.1	0.9	0.0	0.0	0.0	0.0
	3133	1	0.0	0.0	0.0	0.0	3	1.02401	-22.4723	230.0	27	1.1	0.9	0.0	0.0	0.0	0.0
	3134	1	0.0	0.0	0.0	0.0	3	1.02298	-23.0867	161.0	27	1.1	0.9	0.0	0.0	0.0	0.0
	3135	1	0.0	0.0	0.0	0.0	3	1.01211	-19.5177	161.0	27	1.1	0.9	0.0	0.0	0.0	0.0
	3136	1	46.96	13.3	0.0	0.0	3	1.0038200000000002	-15.8047	115.0	27	1.1	0.9	0.0	0.0	0.0	0.0
	3137	2	0.0	0.0	0.0	0.0	3	1.02442	-23.531999999999996	115.0	27	1.1	0.9	0.0	0.0	0.0	0.0
	3138	1	10.95	3.1	0.0	0.0	3	1.02461	-38.6765	115.0	28	1.1	0.9	0.0	0.0	0.0	0.0
	3139	1	14.92	4.23	0.0	0.0	3	0.998661	-29.475400000000004	115.0	27	1.1	0.9	0.0	0.0	0.0	0.0