%% MATPOWER Case Format : Version 2
function mpc = case_ACTIVSg10k
mpc.version = '2';

%%-----  Power Flow Data  -----%%
%% system MVA base
mpc.baseMVA = 100;
%% bus data
%    bus_i    type    Pd    Qd    Gs    Bs    area    Vm    Va    baseKV    zone    Vmax    Vmin
mpc.bus = [
	10001	1	9.64	2.54	0.0	0.0	1	1.0116409	-39.843601	138.0	1	1.1	0.9	20.77	0.28	0.0	0.0
	10002	1	15.98	6.04	0.0	0.0	1	1.0170252	-37.043319	138.0	1	1.1	0.9	20.47	0.29	0.0	0.0
	10003	1	14.39	1.09	0.0	0.0	1	1.0314498	-34.039098	138.0	1	1.1	0.9	20.08	0.26	0.0	0.0
	10004	1	0.0	0.0	0.0	0.0	1	1.0324589	-33.926182	138.0	1	1.1	0.9	20.06	0.26	0.0	0.0
	10005	1	10.45	2.75	0.0	0.0	1	1.0324073	-33.932471	138.0	1	1.1	0.9	20.06	0.26	0.0	0.0
	10006	1	13.44	1.28	0.0	0.0	1	1.0255915	-35.816633	138.0	1	1.1	0.9	20.33	0.13	0.0	0.0
	10007	1	0.0	0.0	0.0	0.0	1	1.0256414	-35.808499	138.0	1	1.1	0.9	20.33	0.13	0.0	0.0
	10008	1	0.0	0.0	0.0	0.0	1	1.0243111	-34.741944	138.0	1	1.1	0.9	20.25	0.12	0.0	0.0
	10009	1	16.82	2.59	0.0	0.0	1	1.0242459	-34.751218	138.0	1	1.1	0.9	20.25	0.12	0.0	0.0
	10010	1	33.49	15.14	0.0	0.0	1	1.0230199	-34.84581	138.0	1	1.1	0.9	20.18	0.29	0.0	0.0
	10011	1	32.02	8.17	0.0	0.0	1	1.0073858	-40.603606000000006	138.0	1	1.1	0.9	20.77	0.29	0.0	0.0
	10012	1	0.0	0.0	0.0	0.0	1	1.0354328	-32.265236	345.0	1	1.1	0.9	20.04	0.22	0.0	0.0
	10013	1	57.79	30.06	0.0	0.0	1	1.0281891	-34.327064	138.0	1	1.1	0.9	20.07	0.26	0.0	0.0
	10014	1	0.0	0.0	0.0	0.0	1	1.0256878	-34.64117	138.0	1	1.1	0.9	20.13	0.27	0.0	0.0
	10015	1	25.009999999999998	11.8	0.0	0.0	1	1.0254965	-34.654275	138.0	1	1.1	0.9	20.13	0.27	0.0	0.0
	10016	1	0.0	0.0	0.0	0.0	1	1.0266137	-32.284026	138.0	1	1.1	0.9	20.03	0.09	0.0	0.0
	10017	1	25.89	7.16	0.0	0.0	1	1.0264701	-32.299269	138.0	1	1.1	0.9	20.03	0.09	0.0	0.0
	10018	1	24.47	6.19	0.0	0.0	1	1.0320894	-35.370085	138.0	1	1.1	0.9	20.21	0.27	0.0	0.0
	10019	1	0.0	0.0	0.0	0.0	1	1.038592	-36.540823	345.0	1	1.1	0.9	20.39	0.23	0.0	0.0
	10020	1	53.349999999999994	4.54	0.0	32.0	1	1.0163177	-39.07464800000001	138.0	1	1.1	0.9	20.48	0.26	0.0	0.0
	10021	1	8.99	2.13	0.0	0.0	1	1.027115	-31.899164000000003	138.0	1	1.1	0.9	19.91	0.11	0.0	0.0
	10022	1	48.19	15.920000000000002	0.0	0.0	1	1.0405375	-35.691866	138.0	1	1.1	0.9	20.22	0.24	0.0	0.0
	10023	1	0.0	0.0	0.0	0.0	1	1.032395	-33.23250800000001	345.0	1	1.1	0.9	20.12	0.23	0.0	0.0
	10024	1	43.96	8.97	0.0	0.0	1	1.0439774	-35.612977	138.0	1	1.1	0.9	20.19	0.22	0.0	0.0
	10025	1	30.89	12.76	0.0	0.0	1	1.0333372	-32.720484	138.0	1	1.1	0.9	19.92	0.11	0.0	0.0
	10026	1	18.65	4.97	0.0	0.0	1	1.0116824	-41.072887	138.0	1	1.1	0.9	20.4	0.18	0.0	0.0
	10027	1	0.0	0.0	0.0	0.0	1	1.0038997	-41.072378	138.0	1	1.1	0.9	20.8	0.33	0.0	0.0
	10028	1	32.23	12.72	0.0	0.0	1	1.0036898	-41.089378	138.0	1	1.1	0.9	20.81	0.33	0.0	0.0
	10029	1	32.23	1.8500000000000003	0.0	0.0	1	1.0089477	-40.455574	138.0	1	1.1	0.9	20.68	0.3	0.0	0.0
	10030	1	0.0	0.0	0.0	0.0	1	1.0372316	-35.052342	138.0	1	1.1	0.9	20.17	0.25	0.0	0.0
	10031	1	39.8	7.180000000000001	0.0	0.0	1	1.0370651	-35.073682	138.0	1	1.1	0.9	20.18	0.25	0.0	0.0
	10032	1	41.5	5.68	0.0	0.0	1	1.0307508	-36.117109	138.0	1	1.1	0.9	20.29	0.27	0.0	0.0
	10033	1	59.050000000000004	6.959999999999999	0.0	0.0	1	1.016838	-32.557944	138.0	1	1.1	0.9	19.94	0.17	0.0	0.0
	10034	1	0.0	0.0	0.0	0.0	1	1.015676	-32.426001	138.0	1	1.1	0.9	19.92	0.18	0.0	0.0
	10035	1	59.050000000000004	42.65	0.0	0.0	1	1.0151295	-32.454759	138.0	1	1.1	0.9	19.93	0.18	0.0	0.0
	10036	1	0.0	0.0	0.0	0.0	1	1.0163185	-32.393034	138.0	1	1.1	0.9	19.92	0.17	0.0	0.0
	10037	1	58.29	11.32	0.0	0.0	1	1.0338033	-32.09312500000001	138.0	1	1.1	0.9	19.93	0.09	0.0	0.0
	10038	1	36.59	13.170000000000002	0.0	0.0	1	1.0356734	-36.400225	138.0	1	1.1	0.9	20.33	0.26	0.0	0.0
	10039	1	0.0	0.0	0.0	0.0	1	1.0359091	-36.38095	138.0	1	1.1	0.9	20.33	0.26	0.0	0.0
	10040	1	43.57	13.69	0.0	0.0	1	1.030238	-37.084123	138.0	1	1.1	0.9	20.4	0.28	0.0	0.0
	10041	1	20.08	9.93	0.0	0.0	1	1.0323228	-31.342346	138.0	1	1.1	0.9	19.87	0.09	0.0	0.0
	10042	1	59.25	11.36	0.0	0.0	1	1.0328935	-33.190059	138.0	1	1.1	0.9	19.97	0.13	0.0	0.0
	10043	1	0.0	0.0	0.0	0.0	1	1.0218061	-38.811021	138.0	1	1.1	0.9	20.55	0.3	0.0	0.0
	10044	1	37.54	1.7399999999999998	0.0	0.0	1	1.0216999	-38.834832	138.0	1	1.1	0.9	20.55	0.3	0.0	0.0
	10045	1	25.35	12.91	0.0	0.0	1	1.0227844	-32.151262	138.0	1	1.1	0.9	19.93	0.13	0.0	0.0
	10046	1	0.0	0.0	0.0	0.0	1	1.0222881	-34.51371	138.0	1	1.1	0.9	20.16	0.17	0.0	0.0
	10047	1	45.76	5.94	0.0	0.0	1	1.0221304	-34.5383	138.0	1	1.1	0.9	20.16	0.17	0.0	0.0
	10048	1	45.76	10.24	0.0	0.0	1	1.0226376	-34.487889	138.0	1	1.1	0.9	20.15	0.17	0.0	0.0
	10049	1	0.0	0.0	0.0	0.0	1	1.0228477	-34.462782	138.0	1	1.1	0.9	20.15	0.17	0.0	0.0
	10050	1	0.0	0.0	0.0	0.0	1	1.0226376	-34.487889	138.0	1	1.1	0.9	20.15	0.17	0.0	0.0
	10051	1	0.0	0.0	0.0	0.0	1	1.0136499	-40.814996	138.0	1	1.1	0.9	20.37	0.18	0.0	0.0
	10052	1	17.51	1.94	0.0	0.0	1	1.0135818	-40.825956	138.0	1	1.1	0.9	20.37	0.18	0.0	0.0
	10053	1	43.68	4.56	0.0	0.0	1	1.0269065	-33.681628	138.0	1	1.1	0.9	20.12	0.13	0.0	0.0
	10054	1	43.32	16.13	0.0	0.0	1	1.0046601	-41.058556	138.0	1	1.1	0.9	20.83	0.34	0.0	0.0
	10055	1	17.57	5.16	0.0	0.0	1	1.0267267	-34.746926	138.0	1	1.1	0.9	20.14	0.16	0.0	0.0
	10056	1	0.0	0.0	0.0	0.0	1	1.0268289	-34.738068	138.0	1	1.1	0.9	20.14	0.16	0.0	0.0
	10057	1	0.0	0.0	0.0	0.0	1	1.0309544	-32.301317	345.0	1	1.1	0.9	20.07	0.17	0.0	0.0
	10058	1	43.93	8.14	0.0	0.0	1	1.022309	-34.670766	138.0	1	1.1	0.9	20.13	0.2	0.0	0.0
	10059	1	0.0	0.0	0.0	0.0	1	1.0317222	-32.205262	345.0	1	1.1	0.9	20.06	0.17	0.0	0.0
	10060	1	43.93	27.62	0.0	0.0	1	1.0200555	-34.755574	138.0	1	1.1	0.9	20.16	0.2	0.0	0.0
	10061	1	51.07000000000001	18.71	0.0	22.0	1	1.0261269	-38.072955	138.0	1	1.1	0.9	20.53	0.28	0.0	0.0
	10062	1	0.0	0.0	0.0	0.0	1	1.0206114	-39.86985	138.0	1	1.1	0.9	20.66	0.3	0.0	0.0
	10063	1	0.0	0.0	0.0	0.0	1	1.0207945	-39.850744	138.0	1	1.1	0.9	20.65	0.3	0.0	0.0
	10064	1	36.24	9.3	0.0	0.0	1	1.0204151	-39.891009	138.0	1	1.1	0.9	20.66	0.3	0.0	0.0
	10065	1	46.26	6.819999999999999	0.0	0.0	1	1.0197883	-39.702987	138.0	1	1.1	0.9	20.64	0.3	0.0	0.0
	10066	1	0.0	0.0	0.0	0.0	1	1.0197883	-39.702987	13.8	1	1.1	0.9	20.64	0.3	0.0	0.0
	10067	1	0.0	0.0	0.0	0.0	1	1.0197883	-39.702987	13.8	1	1.1	0.9	20.64	0.3	0.0	0.0
	10068	1	0.0	0.0	0.0	0.0	1	1.0197883	-39.702987	1.0	1	1.1	0.9	20.64	0.3	0.0	0.0
	10069	1	58.86	14.48	0.0	0.0	1	1.0127526	-33.015071	138.0	1	1.1	0.9	20.02	0.19	0.0	0.0
	10070	1	11.07	0.16	0.0	0.0	1	1.0241138	-39.019209	138.0	1	1.1	0.9	20.58	0.28	0.0	0.0
	10071	1	38.37	10.34	0.0	0.0	1	1.0257891	-35.009419	138.0	1	1.1	0.9	20.17	0.17	0.0	0.0
	10072	1	0.0	0.0	0.0	0.0	1	1.0200845	-35.099512	138.0	1	1.1	0.9	20.17	0.21	0.0	0.0
	10073	1	38.37	20.18	0.0	0.0	1	1.019747	-35.120206	138.0	1	1.1	0.9	20.18	0.22	0.0	0.0
	10074	1	0.0	0.0	0.0	0.0	1	1.0142579	-33.366167000000004	138.0	1	1.1	0.9	20.06	0.19	0.0	0.0
	10075	1	14.719999999999999	4.64	0.0	0.0	1	1.0141746	-33.37456900000001	138.0	1	1.1	0.9	20.06	0.19	0.0	0.0
	10076	1	27.96	2.98	0.0	0.0	1	1.0245081	-38.174506	138.0	1	1.1	0.9	20.53	0.28	0.0	0.0
	10077	1	28.46	7.93	0.0	0.0	1	1.0263241	-34.86003	138.0	1	1.1	0.9	20.19	0.24	0.0	0.0
	10078	1	0.0	0.0	0.0	0.0	1	1.0323963	-34.304647	345.0	1	1.1	0.9	20.25	0.24	0.0	0.0
	10079	1	55.86	12.509999999999998	0.0	0.0	1	1.0223918	-38.194635	138.0	1	1.1	0.9	20.41	0.3	0.0	0.0
	10080	1	0.0	0.0	0.0	0.0	1	1.0164502	-43.75875	24.0	1	1.1	0.9	20.64	0.35	0.0	0.0
	10081	1	0.0	0.0	0.0	0.0	1	1.0164502	-43.75875	1.0	1	1.1	0.9	20.64	0.35	0.0	0.0
	10082	1	0.0	0.0	0.0	0.0	1	1.0201843	-39.061951	138.0	1	1.1	0.9	20.55	0.3	0.0	0.0
	10083	1	22.32	8.77	0.0	0.0	1	1.0200317	-39.073656	138.0	1	1.1	0.9	20.55	0.3	0.0	0.0
	10084	1	0.0	0.0	0.0	0.0	1	1.0299458	-38.147505	138.0	1	1.1	0.9	19.91	0.12	0.0	0.0
	10085	1	40.86	5.87	0.0	0.0	1	1.0297888	-38.17281200000001	138.0	1	1.1	0.9	19.91	0.12	0.0	0.0
	10086	1	0.0	0.0	0.0	0.0	1	1.0300854	-38.125976	138.0	1	1.1	0.9	19.9	0.12	0.0	0.0
	10087	1	10.87	8.58	0.0	0.0	1	1.0159507	-39.839459	138.0	1	1.1	0.9	20.69	0.28	0.0	0.0
	10088	1	0.0	0.0	0.0	0.0	1	1.0293828	-39.37408	138.0	1	1.1	0.9	20.56	0.26	0.0	0.0
	10089	1	33.23	4.19	0.0	0.0	1	1.029255	-39.393691000000004	138.0	1	1.1	0.9	20.57	0.26	0.0	0.0
	10090	1	33.23	6.75	0.0	0.0	1	1.0239085	-39.445412	138.0	1	1.1	0.9	20.6	0.29	0.0	0.0
	10091	1	37.67	4.7	0.0	0.0	1	1.0257154	-33.716736	138.0	1	1.1	0.9	20.05	0.22	0.0	0.0
	10092	1	31.46	1.7000000000000002	0.0	0.0	1	1.0251786	-34.96772	138.0	1	1.1	0.9	20.21	0.25	0.0	0.0
	10093	1	31.46	11.16	0.0	0.0	1	1.0241716	-35.703976	138.0	1	1.1	0.9	20.27	0.25	0.0	0.0
	10094	1	0.0	0.0	0.0	0.0	1	1.0245425	-38.368017	138.0	1	1.1	0.9	20.53	0.28	0.0	0.0
	10095	1	0.0	0.0	0.0	0.0	1	1.0246287	-38.358101	138.0	1	1.1	0.9	20.53	0.28	0.0	0.0
	10096	1	18.02	4.43	0.0	0.0	1	1.0244613	-38.377859	138.0	1	1.1	0.9	20.54	0.28	0.0	0.0
	10097	1	31.019999999999996	5.28	0.0	0.0	1	1.0266602	-34.230127	138.0	1	1.1	0.9	20.09	0.23	0.0	0.0
	10098	1	19.84	5.6	0.0	0.0	1	1.0217068	-35.309703	138.0	1	1.1	0.9	20.19	0.21	0.0	0.0
	10099	1	0.0	0.0	0.0	0.0	1	1.0218257	-35.298217	138.0	1	1.1	0.9	20.19	0.21	0.0	0.0
	10100	1	0.0	0.0	0.0	0.0	1	1.0338955	-35.54086600000001	138.0	1	1.1	0.9	20.24	0.24	0.0	0.0
	10101	1	0.0	0.0	0.0	0.0	1	1.0340507	-35.52283	138.0	1	1.1	0.9	20.24	0.24	0.0	0.0
	10102	1	33.88	8.27	0.0	0.0	1	1.0337126	-35.56075	138.0	1	1.1	0.9	20.24	0.25	0.0	0.0
	10103	1	0.0	0.0	0.0	0.0	1	1.0284028	-35.422526	138.0	1	1.1	0.9	20.25	0.27	0.0	0.0
	10104	1	57.74	17.1	0.0	0.0	1	1.0280648	-35.452356	138.0	1	1.1	0.9	20.26	0.27	0.0	0.0
	10105	1	0.0	0.0	0.0	0.0	1	1.0287312	-35.389824	138.0	1	1.1	0.9	20.25	0.27	0.0	0.0
	10106	1	51.34000000000001	13.639999999999999	0.0	0.0	1	1.0192143	-39.776461000000005	138.0	1	1.1	0.9	20.2	0.16	0.0	0.0
	10107	1	26.950000000000003	1.82	0.0	0.0	1	1.0245852	-37.648532	138.0	1	1.1	0.9	20.51	0.22	0.0	0.0
	10108	1	0.0	0.0	0.0	0.0	1	1.0246615	-37.631602	138.0	1	1.1	0.9	20.51	0.22	0.0	0.0
	10109	1	0.0	0.0	0.0	0.0	1	1.0245852	-37.648532	138.0	1	1.1	0.9	20.51	0.22	0.0	0.0
	10110	1	12.48	4.31	0.0	0.0	1	1.0311561	-33.816421	138.0	1	1.1	0.9	20.02	0.14	0.0	0.0
	10111	1	0.0	0.0	0.0	0.0	1	1.0312285	-33.809593	138.0	1	1.1	0.9	20.02	0.14	0.0	0.0
	10112	1	11.2	2.7	0.0	0.0	1	1.0277943	-34.460854	138.0	1	1.1	0.9	20.11	0.16	0.0	0.0
	10113	1	0.0	0.0	0.0	0.0	1	1.0259636	-38.991283	138.0	1	1.1	0.9	20.53	0.29	0.0	0.0
	10114	1	31.06	13.530000000000001	0.0	0.0	1	1.025748	-39.008558	138.0	1	1.1	0.9	20.53	0.29	0.0	0.0
	10115	1	31.06	11.74	0.0	0.0	1	1.0251626	-38.961182	138.0	1	1.1	0.9	20.52	0.3	0.0	0.0
	10116	1	47.94	5.39	0.0	0.0	1	1.0362135	-33.812278	138.0	1	1.1	0.9	20.03	0.16	0.0	0.0
	10117	1	0.0	0.0	0.0	0.0	1	1.0371168	-29.973999	345.0	1	1.1	0.9	19.91	0.11	0.0	0.0
	10118	1	45.39	21.63	0.0	0.0	1	1.0360956	-33.838935	138.0	1	1.1	0.9	20.02	0.17	0.0	0.0
	10119	1	0.0	0.0	0.0	0.0	1	1.0362398	-34.19728	13.8	1	1.1	0.9	20.03	0.17	0.0	0.0
	10120	1	0.0	0.0	0.0	0.0	1	1.0362398	-34.19728	1.0	1	1.1	0.9	20.03	0.17	0.0	0.0
	10121	1	0.0	0.0	0.0	0.0	1	1.0177915	-38.974238	138.0	1	1.1	0.9	20.55	0.31	0.0	0.0
	10122	1	35.43	19.18	0.0	0.0	1	1.0174988	-38.994027	138.0	1	1.1	0.9	20.55	0.31	0.0	0.0
	10123	1	0.0	0.0	0.0	0.0	1	1.01872	-38.794751	138.0	1	1.1	0.9	20.51	0.31	0.0	0.0
	10124	1	0.0	0.0	0.0	0.0	1	1.0188713	-38.773023	138.0	1	1.1	0.9	20.51	0.31	0.0	0.0
	10125	1	35.43	7.06	0.0	0.0	1	1.0185632	-38.816167	138.0	1	1.1	0.9	20.51	0.31	0.0	0.0
	10126	1	0.0	0.0	0.0	0.0	1	1.01872	-38.794751	138.0	1	1.1	0.9	20.51	0.31	0.0	0.0
	10127	1	0.0	0.0	0.0	0.0	1	1.0194055	-34.785477	345.0	1	1.1	0.9	20.28	0.25	0.0	0.0
	10128	1	44.89	16.27	0.0	0.0	1	1.0349271	-38.678305	138.0	1	1.1	0.9	20.45	0.24	0.0	0.0
	10129	1	50.09	14.75	0.0	0.0	1	1.034663	-35.348336	138.0	1	1.1	0.9	20.22	0.25	0.0	0.0
	10130	1	50.09	14.37	0.0	0.0	1	1.0211984	-35.08454	138.0	1	1.1	0.9	20.21	0.28	0.0	0.0
	10131	1	0.0	0.0	0.0	0.0	1	1.0287552	-35.358406	138.0	1	1.1	0.9	20.24	0.27	0.0	0.0
	10132	1	41.72	12.38	0.0	0.0	1	1.0285157	-35.382846	138.0	1	1.1	0.9	20.25	0.27	0.0	0.0
	10133	1	0.0	0.0	0.0	0.0	1	1.0242636	-38.318841	138.0	1	1.1	0.9	20.55	0.28	0.0	0.0
	10134	1	71.03	8.23	0.0	0.0	1	1.0239863	-38.357531	138.0	1	1.1	0.9	20.56	0.28	0.0	0.0
	10135	1	61.01	13.930000000000001	0.0	0.0	1	1.0312205	-37.929885	138.0	1	1.1	0.9	19.86	0.12	0.0	0.0
	10136	1	0.0	0.0	0.0	0.0	1	1.031523	-37.894015	138.0	1	1.1	0.9	19.86	0.12	0.0	0.0
	10137	1	20.07	5.15	0.0	0.0	1	1.025873	-34.068553	138.0	1	1.1	0.9	20.08	0.23	0.0	0.0
	10138	1	38.05	7.429999999999999	0.0	0.0	1	1.0245317	-39.476173	138.0	1	1.1	0.9	20.58	0.28	0.0	0.0
	10139	1	35.0	8.78	0.0	0.0	1	1.0595043	-36.36937	138.0	1	1.1	0.9	20.17	0.18	0.0	0.0
	10140	1	16.07	5.79	0.0	0.0	1	1.0205742	-38.999097	138.0	1	1.1	0.9	20.53	0.31	0.0	0.0
	10141	1	41.11	16.66	0.0	0.0	1	1.0202832	-39.022624	138.0	1	1.1	0.9	20.53	0.32	0.0	0.0
	10142	1	41.11	1.31	0.0	0.0	1	1.0175076	-39.26695	138.0	1	1.1	0.9	20.59	0.33	0.0	0.0
	10143	1	0.0	0.0	0.0	0.0	1	1.0176258	-39.241299	138.0	1	1.1	0.9	20.58	0.33	0.0	0.0
	10144	1	0.0	0.0	0.0	0.0	1	1.0175076	-39.26695	138.0	1	1.1	0.9	20.59	0.33	0.0	0.0
	10145	1	37.97	9.24	0.0	0.0	1	1.0191744	-34.50934	138.0	1	1.1	0.9	20.16	0.27	0.0	0.0
	10146	1	37.97	9.3	0.0	0.0	1	1.0198485	-35.015836	138.0	1	1.1	0.9	20.2	0.29	0.0	0.0
	10147	1	0.0	0.0	0.0	0.0	1	1.0200417	-34.993253	138.0	1	1.1	0.9	20.2	0.28	0.0	0.0
	10148	1	52.25	24.72	0.0	0.0	1	1.0260568	-35.392693	138.0	1	1.1	0.9	20.26	0.27	0.0	0.0
	10149	1	0.0	0.0	0.0	0.0	1	1.0254475	-39.581735	138.0	1	1.1	0.9	20.61	0.28	0.0	0.0
	10150	1	7.99	4.67	0.0	0.0	1	1.0168054	-40.400752	18.0	1	1.1	0.9	20.64	0.29	0.0	0.0
	10151	1	11.73	1.24	0.0	0.0	1	1.02179	-40.727861000000004	18.0	1	1.1	0.9	20.65	0.28	0.0	0.0
	10152	1	0.0	0.0	0.0	0.0	1	1.0245018	-39.728968	1.0	1	1.1	0.9	20.61	0.28	0.0	0.0
	10153	1	35.35	3.8900000000000006	0.0	0.0	1	1.0241439	-35.521611	138.0	1	1.1	0.9	20.22	0.19	0.0	0.0
	10154	1	33.06	13.11	0.0	0.0	1	1.0580155	-36.510186	138.0	1	1.1	0.9	20.19	0.19	0.0	0.0
	10155	1	0.0	0.0	0.0	0.0	1	1.0221174	-35.479842	138.0	1	1.1	0.9	20.21	0.21	0.0	0.0
	10156	1	33.52	4.02	0.0	0.0	1	1.0219881	-35.499119	138.0	1	1.1	0.9	20.21	0.21	0.0	0.0
	10157	1	32.33	10.35	0.0	80.0	1	1.0366085	-38.69166100000001	138.0	1	1.1	0.9	20.46	0.23	0.0	0.0
	10158	1	0.0	0.0	0.0	0.0	1	1.0358222	-38.662844	138.0	1	1.1	0.9	20.45	0.24	0.0	0.0
	10159	1	15.22	4.81	0.0	0.0	1	1.0290963	-38.622225	138.0	1	1.1	0.9	20.45	0.27	0.0	0.0
	10160	1	55.26	20.75	0.0	0.0	1	1.0143835	-39.13101	138.0	1	1.1	0.9	20.6	0.35	0.0	0.0
	10161	1	0.0	0.0	0.0	0.0	1	1.0221209	-41.464357	138.0	1	1.1	0.9	20.92	0.24	0.0	0.0
	10162	1	25.6	5.53	0.0	0.0	1	1.0219846	-41.479494	138.0	1	1.1	0.9	20.92	0.24	0.0	0.0
	10163	1	0.0	0.0	0.0	0.0	1	1.0222462	-41.450146	138.0	1	1.1	0.9	20.91	0.24	0.0	0.0
	10164	1	26.640000000000004	6.54	0.0	0.0	1	1.0238143	-35.618254	138.0	1	1.1	0.9	20.21	0.2	0.0	0.0
	10165	1	0.0	0.0	0.0	0.0	1	1.0163883	-39.773845	138.0	1	1.1	0.9	20.62	0.32	0.0	0.0
	10166	1	47.72	5.4	0.0	0.0	1	1.0162035	-39.803841000000006	138.0	1	1.1	0.9	20.63	0.32	0.0	0.0
	10167	1	32.36	10.77	0.0	0.0	1	1.0381633	-35.103536	138.0	1	1.1	0.9	20.19	0.23	0.0	0.0
	10168	1	32.36	10.63	0.0	0.0	1	1.0316972	-35.311606	138.0	1	1.1	0.9	20.22	0.26	0.0	0.0
	10169	1	0.0	0.0	0.0	0.0	1	1.0258799	-35.733086	138.0	1	1.1	0.9	20.2	0.21	0.0	0.0
	10170	1	14.510000000000002	0.9199999999999999	0.0	0.0	1	1.0258332	-35.741176	138.0	1	1.1	0.9	20.2	0.21	0.0	0.0
	10171	1	51.85999999999999	8.23	0.0	0.0	1	1.0190226	-38.613559	138.0	1	1.1	0.9	20.45	0.31	0.0	0.0
	10172	1	0.0	0.0	0.0	0.0	1	1.0227985	-34.045764	138.0	1	1.1	0.9	20.12	0.25	0.0	0.0
	10173	1	0.0	0.0	0.0	0.0	1	1.0229568	-34.021428	138.0	1	1.1	0.9	20.11	0.25	0.0	0.0
	10174	1	41.08	5.55	0.0	0.0	1	1.0226317	-34.071844	138.0	1	1.1	0.9	20.12	0.25	0.0	0.0
	10175	1	41.08	12.710000000000003	0.0	0.0	1	1.0243398	-33.404556	138.0	1	1.1	0.9	20.02	0.23	0.0	0.0
	10176	1	0.0	0.0	0.0	0.0	1	1.0245927	-33.379987	138.0	1	1.1	0.9	20.02	0.23	0.0	0.0
	10177	1	37.0	12.28	0.0	0.0	1	1.0387846	-34.873806	138.0	1	1.1	0.9	20.16	0.23	0.0	0.0
	10178	1	37.0	6.329999999999999	0.0	0.0	1	1.0232512	-35.187729	138.0	1	1.1	0.9	20.23	0.28	0.0	0.0
	10179	1	55.40999999999999	4.59	0.0	0.0	1	1.0309787	-38.077904	138.0	1	1.1	0.9	19.88	0.12	0.0	0.0
	10180	1	1.46	0.56	0.0	0.0	1	1.0309945	-37.885481	138.0	1	1.1	0.9	19.87	0.11	0.0	0.0
	10181	1	0.0	0.0	0.0	0.0	1	1.0311672	-37.855068	138.0	1	1.1	0.9	19.86	0.11	0.0	0.0
	10182	1	55.40999999999999	4.8	0.0	0.0	1	1.0308317	-37.918544	138.0	1	1.1	0.9	19.87	0.11	0.0	0.0
	10183	1	48.59	5.25	0.0	0.0	1	1.0214786	-38.544159	138.0	1	1.1	0.9	20.44	0.3	0.0	0.0
	10184	1	0.0	0.0	0.0	0.0	1	1.0391734	-38.350568	138.0	1	1.1	0.9	20.4	0.23	0.0	0.0
	10185	1	68.06	27.250000000000004	0.0	0.0	1	1.038682	-38.387617	138.0	1	1.1	0.9	20.41	0.23	0.0	0.0
	10186	1	0.0	0.0	0.0	0.0	1	1.0296091	-35.492642	138.0	1	1.1	0.9	20.25	0.2	0.0	0.0
	10187	1	37.59	7.22	0.0	0.0	1	1.0294303	-35.513367	138.0	1	1.1	0.9	20.25	0.2	0.0	0.0
	10188	1	51.739999999999995	17.55	0.0	0.0	1	1.0307217	-33.162378	138.0	1	1.1	0.9	20.01	0.16	0.0	0.0
	10189	1	0.0	0.0	0.0	0.0	1	1.0310525	-33.132025	138.0	1	1.1	0.9	20.0	0.16	0.0	0.0
	10190	1	0.0	0.0	0.0	0.0	1	1.0199622	-34.306139	138.0	1	1.1	0.9	20.15	0.27	0.0	0.0
	10191	1	63.470000000000006	6.05	0.0	0.0	1	1.0197114	-34.344261	138.0	1	1.1	0.9	20.15	0.27	0.0	0.0
	10192	1	0.0	0.0	0.0	0.0	1	1.0097532	-32.008878	345.0	1	1.1	0.9	20.04	0.2	0.0	0.0
	10193	1	63.470000000000006	25.629999999999995	0.0	0.0	1	1.0188744	-34.672169	138.0	1	1.1	0.9	20.16	0.29	0.0	0.0
	10194	1	0.0	0.0	0.0	0.0	1	1.0188709	-34.671273	24.0	1	1.1	0.9	20.16	0.29	0.0	0.0
	10195	1	0.0	0.0	0.0	0.0	1	1.0188709	-34.671273	1.0	1	1.1	0.9	20.16	0.29	0.0	0.0
	10196	1	0.0	0.0	0.0	0.0	1	1.036513	-32.165948	345.0	1	1.1	0.9	20.06	0.19	0.0	0.0
	10197	1	0.0	0.0	0.0	0.0	1	1.0635547	-35.997317	138.0	1	1.1	0.9	20.12	0.17	0.0	0.0
	10198	1	55.169999999999995	29.09	0.0	0.0	1	1.036068	-32.192758	345.0	1	1.1	0.9	20.06	0.19	0.0	0.0
	10199	1	25.509999999999998	11.27	0.0	0.0	1	1.0178039	-39.788112	138.0	1	1.1	0.9	20.63	0.32	0.0	0.0
	10200	1	57.98	19.56	0.0	0.0	1	1.0221392	-38.849075	138.0	1	1.1	0.9	20.49	0.29	0.0	0.0
	10201	1	45.34	7.86	0.0	0.0	1	1.028482	-37.285627	138.0	1	1.1	0.9	19.85	0.09	0.0	0.0
	10202	1	21.66	3.34	0.0	0.0	1	1.0262407	-35.473749	138.0	1	1.1	0.9	20.23	0.29	0.0	0.0
	10203	1	0.0	0.0	0.0	0.0	1	1.0232504	-39.688541	138.0	1	1.1	0.9	20.7	0.23	0.0	0.0
	10204	1	12.67	2.56	0.0	0.0	1	1.0231902	-39.696402	138.0	1	1.1	0.9	20.7	0.23	0.0	0.0
	10205	1	0.0	0.0	0.0	0.0	1	1.0219078	-37.002327	138.0	1	1.1	0.9	20.3	0.28	0.0	0.0
	10206	1	40.75	8.43	0.0	0.0	1	1.0217238	-37.025005	138.0	1	1.1	0.9	20.31	0.28	0.0	0.0
	10207	1	40.75	6.92	0.0	0.0	1	1.0252948	-38.952647	138.0	1	1.1	0.9	20.5	0.28	0.0	0.0
	10208	1	24.17	6.6000000000000005	0.0	0.0	1	1.0278604	-38.591477	138.0	1	1.1	0.9	20.44	0.28	0.0	0.0
	10209	1	81.39	49.51	0.0	0.0	1	1.0183453	-37.187623	138.0	1	1.1	0.9	20.32	0.32	0.0	0.0
	10210	1	49.48	10.28	0.0	0.0	1	1.0292738	-38.169185	138.0	1	1.1	0.9	19.9	0.12	0.0	0.0
	10211	1	49.48	11.08	0.0	0.0	1	1.0284339	-38.048349	138.0	1	1.1	0.9	19.9	0.12	0.0	0.0
	10212	1	0.0	0.0	0.0	0.0	1	1.0286776	-38.018156	138.0	1	1.1	0.9	19.89	0.12	0.0	0.0
	10213	1	0.0	0.0	0.0	0.0	1	1.0390587	-31.650640000000003	138.0	1	1.1	0.9	19.81	0.08	0.0	0.0
	10214	1	12.520000000000001	3.35	0.0	0.0	1	1.0389932	-31.657357000000005	138.0	1	1.1	0.9	19.81	0.08	0.0	0.0
	10215	1	36.39	3.34	0.0	0.0	1	1.0315993	-37.482328	138.0	1	1.1	0.9	19.97	0.11	0.0	0.0
	10216	1	0.0	0.0	0.0	0.0	1	1.0309497	-37.636288	138.0	1	1.1	0.9	19.89	0.11	0.0	0.0
	10217	1	36.39	3.1300000000000003	0.0	0.0	1	1.0308336	-37.657609	138.0	1	1.1	0.9	19.9	0.11	0.0	0.0
	10218	1	30.67	6.45	0.0	90.0	1	1.0303626	-40.875393	138.0	1	1.1	0.9	20.83	0.18	0.0	0.0
	10219	1	38.5	11.16	0.0	0.0	1	1.0297292	-38.917974	138.0	1	1.1	0.9	20.49	0.26	0.0	0.0
	10220	1	0.0	0.0	0.0	0.0	1	1.029936	-38.895576	138.0	1	1.1	0.9	20.49	0.26	0.0	0.0
	10221	1	38.5	7.16	0.0	0.0	1	1.028033	-36.71998000000001	138.0	1	1.1	0.9	20.24	0.25	0.0	0.0
	10222	1	0.0	0.0	0.0	0.0	1	1.0318376	-37.462216	138.0	1	1.1	0.9	19.87	0.09	0.0	0.0
	10223	1	9.41	2.94	0.0	0.0	1	1.0317857	-37.466957	138.0	1	1.1	0.9	19.87	0.09	0.0	0.0
	10224	1	0.0	0.0	0.0	0.0	1	1.0252124	-36.458405	138.0	1	1.1	0.9	20.22	0.28	0.0	0.0
	10225	1	35.59	23.47	0.0	0.0	1	1.0248657	-36.476248	138.0	1	1.1	0.9	20.23	0.28	0.0	0.0
	10226	1	35.59	19.12	0.0	0.0	1	1.0210349	-37.029741	138.0	1	1.1	0.9	20.31	0.29	0.0	0.0
	10227	1	47.25	13.43	0.0	0.0	1	1.0237587	-40.59113	138.0	1	1.1	0.9	20.77	0.26	0.0	0.0
	10228	1	53.38	19.97	0.0	0.0	1	1.0329023	-38.102186	138.0	1	1.1	0.9	20.46	0.28	0.0	0.0
	10229	1	35.45	4.71	0.0	50.0	1	1.032465	-38.757536	138.0	1	1.1	0.9	20.53	0.26	0.0	0.0
	10230	1	51.81	10.71	0.0	0.0	1	1.0321633	-36.274512	138.0	1	1.1	0.9	20.18	0.24	0.0	0.0
	10231	1	51.81	15.83	0.0	0.0	1	1.0305393	-36.841138	138.0	1	1.1	0.9	20.22	0.25	0.0	0.0
	10232	1	48.36	11.43	0.0	0.0	1	1.0166545	-38.033067	138.0	1	1.1	0.9	20.41	0.32	0.0	0.0
	10233	1	0.0	0.0	0.0	0.0	1	1.0269711	-38.051968	138.0	1	1.1	0.9	20.48	0.29	0.0	0.0
	10234	1	37.64	3.83	0.0	0.0	1	1.0268269	-38.07461	138.0	1	1.1	0.9	20.49	0.29	0.0	0.0
	10235	1	0.0	0.0	0.0	0.0	1	1.0241854	-41.196093	138.0	1	1.1	0.9	20.87	0.23	0.0	0.0
	10236	1	37.64	13.28	0.0	0.0	1	1.0239647	-41.217518	138.0	1	1.1	0.9	20.88	0.23	0.0	0.0
	10237	1	33.48	6.19	0.0	0.0	1	1.0255355	-35.682551	138.0	1	1.1	0.9	20.26	0.29	0.0	0.0
	10238	1	33.48	8.37	0.0	0.0	1	1.0253048	-35.625381	138.0	1	1.1	0.9	20.25	0.29	0.0	0.0
	10239	1	50.01	9.84	0.0	0.0	1	1.0346344	-38.530763	138.0	1	1.1	0.9	20.5	0.27	0.0	0.0
	10240	1	0.0	0.0	0.0	0.0	1	1.0348605	-38.503153	138.0	1	1.1	0.9	20.5	0.26	0.0	0.0
	10241	1	50.74999999999999	10.16	0.0	0.0	1	1.0358036	-37.707453	138.0	1	1.1	0.9	20.43	0.28	0.0	0.0
	10242	1	0.0	0.0	0.0	60.0	1	1.0315108	-38.027924	138.0	1	1.1	0.9	20.48	0.27	0.0	0.0
	10243	1	45.67	5.61	0.0	0.0	1	1.0313574	-38.053286	138.0	1	1.1	0.9	20.49	0.27	0.0	0.0
	10244	1	34.46	5.65	0.0	0.0	1	1.0496185	-32.905028	138.0	1	1.1	0.9	19.9	0.1	0.0	0.0
	10245	1	34.46	8.68	0.0	0.0	1	1.0504942	-32.872209	138.0	1	1.1	0.9	19.89	0.1	0.0	0.0
	10246	1	0.0	0.0	0.0	0.0	1	1.0506588	-32.851715	138.0	1	1.1	0.9	19.89	0.1	0.0	0.0
	10247	1	41.16	3.94	0.0	0.0	1	1.0208945	-36.92838	138.0	1	1.1	0.9	20.31	0.28	0.0	0.0
	10248	1	43.93	29.92	0.0	0.0	1	1.0234519	-40.684195	138.0	1	1.1	0.9	20.83	0.22	0.0	0.0
	10249	1	50.49	5.58	0.0	0.0	1	1.0225298	-38.192519	138.0	1	1.1	0.9	20.49	0.31	0.0	0.0
	10250	1	57.00999999999999	12.839999999999998	0.0	0.0	1	1.0173637	-39.062542	138.0	1	1.1	0.9	20.5	0.32	0.0	0.0
	10251	1	57.00999999999999	22.38	0.0	0.0	1	1.0217446	-38.593314	138.0	1	1.1	0.9	20.45	0.3	0.0	0.0
	10252	1	31.11	9.46	0.0	0.0	1	1.018442	-38.564001	138.0	1	1.1	0.9	20.5	0.29	0.0	0.0
	10253	1	0.0	0.0	0.0	0.0	1	1.0186082	-38.547043	138.0	1	1.1	0.9	20.5	0.28	0.0	0.0
	10254	1	31.11	19.53	0.0	0.0	1	1.0172092	-38.990685	138.0	1	1.1	0.9	20.56	0.33	0.0	0.0
	10255	1	0.0	0.0	0.0	0.0	1	1.0174886	-38.973339	138.0	1	1.1	0.9	20.56	0.33	0.0	0.0
	10256	1	0.0	0.0	0.0	0.0	1	1.0187975	-38.708193	138.0	1	1.1	0.9	20.46	0.31	0.0	0.0
	10257	1	24.34	12.590000000000002	0.0	0.0	1	1.0185994	-38.721747	138.0	1	1.1	0.9	20.47	0.32	0.0	0.0
	10258	1	0.0	0.0	0.0	0.0	1	1.0190105	-38.694482	138.0	1	1.1	0.9	20.46	0.31	0.0	0.0
	10259	1	48.72	8.04	0.0	0.0	1	1.0163802	-38.564933	138.0	1	1.1	0.9	20.48	0.31	0.0	0.0
	10260	1	30.31	12.35	0.0	0.0	1	1.0342304	-37.664882000000006	138.0	1	1.1	0.9	20.42	0.28	0.0	0.0
	10261	1	0.0	0.0	0.0	0.0	1	1.0192151	-38.468471	138.0	1	1.1	0.9	20.52	0.32	0.0	0.0
	10262	1	54.89999999999999	12.07	0.0	0.0	1	1.01892	-38.501703	138.0	1	1.1	0.9	20.52	0.33	0.0	0.0
	10263	1	35.69	9.54	0.0	0.0	1	1.0557666	-32.183808	138.0	1	1.1	0.9	19.79	0.06	0.0	0.0
	10264	1	0.0	0.0	0.0	0.0	1	1.0276149	-38.267992	138.0	1	1.1	0.9	20.5	0.29	0.0	0.0
	10265	1	0.0	0.0	0.0	0.0	1	1.0277538	-38.238369	138.0	1	1.1	0.9	20.5	0.29	0.0	0.0
	10266	1	49.72	2.39	0.0	0.0	1	1.0274814	-38.297366	138.0	1	1.1	0.9	20.51	0.29	0.0	0.0
	10267	1	23.27	4.11	0.0	0.0	1	1.0097628	-34.325497	138.0	1	1.1	0.9	20.24	0.28	0.0	0.0
	10268	1	0.0	0.0	0.0	0.0	1	1.0189451	-37.027058	138.0	1	1.1	0.9	20.36	0.31	0.0	0.0
	10269	1	53.47	13.720000000000002	0.0	0.0	1	1.0186792	-37.058869	138.0	1	1.1	0.9	20.37	0.31	0.0	0.0
	10270	1	0.0	0.0	0.0	0.0	1	1.0304329	-37.715572	138.0	1	1.1	0.9	20.44	0.28	0.0	0.0
	10271	1	53.47	7.16	0.0	0.0	1	1.0302429	-37.745014	138.0	1	1.1	0.9	20.45	0.28	0.0	0.0
	10272	1	55.09	7.780000000000001	0.0	0.0	1	1.0177324	-38.493395	138.0	1	1.1	0.9	20.52	0.33	0.0	0.0
	10273	1	55.09	20.54	0.0	0.0	1	1.0182052	-37.978935	138.0	1	1.1	0.9	20.44	0.33	0.0	0.0
	10274	1	24.57	5.95	0.0	0.0	1	1.0300576	-37.764237	138.0	1	1.1	0.9	20.47	0.29	0.0	0.0
	10275	1	0.0	0.0	0.0	0.0	1	1.0180023	-33.470741	345.0	1	1.1	0.9	20.19	0.24	0.0	0.0
	10276	1	43.11	11.41	0.0	0.0	1	1.0208713	-36.116008	138.0	1	1.1	0.9	20.25	0.29	0.0	0.0
	10277	1	44.92	20.45	0.0	0.0	1	1.0158859	-37.276349	138.0	1	1.1	0.9	20.4	0.31	0.0	0.0
	10278	1	0.0	0.0	0.0	0.0	1	1.0262513	-36.984576	138.0	1	1.1	0.9	19.88	0.12	0.0	0.0
	10279	1	28.63	8.04	0.0	0.0	1	1.0260919	-37.000382	138.0	1	1.1	0.9	19.88	0.12	0.0	0.0
	10280	1	0.0	0.0	0.0	0.0	1	1.0264034	-36.967366	138.0	1	1.1	0.9	19.88	0.12	0.0	0.0
	10281	1	0.0	0.0	0.0	0.0	1	1.0262513	-36.984576	138.0	1	1.1	0.9	19.88	0.12	0.0	0.0
	10282	1	0.0	0.0	0.0	0.0	1	1.0262513	-36.984576	138.0	1	1.1	0.9	19.88	0.12	0.0	0.0
	10283	1	32.97	7.88	0.0	0.0	1	1.034856	-38.506954	138.0	1	1.1	0.9	20.5	0.26	0.0	0.0
	10284	1	0.0	0.0	0.0	0.0	1	1.0350222	-38.486793	138.0	1	1.1	0.9	20.49	0.26	0.0	0.0
	10285	1	24.02	1.73	0.0	0.0	1	1.0184078	-38.537691	138.0	1	1.1	0.9	20.53	0.32	0.0	0.0
	10286	1	53.39	18.0	0.0	0.0	1	1.0296712	-36.555986	138.0	1	1.1	0.9	20.21	0.25	0.0	0.0
	10287	1	0.0	0.0	0.0	0.0	1	1.0198596	-37.962068	138.0	1	1.1	0.9	20.39	0.29	0.0	0.0
	10288	1	49.12	9.58	0.0	0.0	1	1.0196241	-37.99265	138.0	1	1.1	0.9	20.39	0.29	0.0	0.0
	10289	1	32.24	3.8	0.0	0.0	1	1.0251667	-36.507828	138.0	1	1.1	0.9	20.26	0.26	0.0	0.0
	10290	1	32.24	4.22	0.0	0.0	1	1.0211123	-37.115457	138.0	1	1.1	0.9	20.31	0.3	0.0	0.0
	10291	1	0.0	0.0	0.0	0.0	1	1.0203147	-38.164466	138.0	1	1.1	0.9	20.48	0.32	0.0	0.0
	10292	1	49.81	3.1300000000000003	0.0	0.0	1	1.02015	-38.196427	138.0	1	1.1	0.9	20.48	0.32	0.0	0.0
	10293	1	52.98	28.470000000000002	0.0	0.0	1	1.0117324	-38.422822	138.0	1	1.1	0.9	20.52	0.33	0.0	0.0
	10294	1	52.98	12.34	0.0	0.0	1	1.0212528	-37.376948000000006	138.0	1	1.1	0.9	20.33	0.29	0.0	0.0
	10295	1	0.0	0.0	0.0	0.0	1	1.0215	-37.349105	138.0	1	1.1	0.9	20.33	0.29	0.0	0.0
	10296	1	56.71000000000001	7.15	0.0	0.0	1	1.0162831	-38.356231	138.0	1	1.1	0.9	20.46	0.3	0.0	0.0
	10297	1	0.0	0.0	0.0	0.0	1	1.0165179	-38.324395	138.0	1	1.1	0.9	20.46	0.3	0.0	0.0
	10298	1	0.0	0.0	0.0	0.0	1	1.0156559	-38.313669	138.0	1	1.1	0.9	20.44	0.32	0.0	0.0
	10299	1	41.5	28.64	0.0	0.0	1	1.0152414	-38.332798	138.0	1	1.1	0.9	20.44	0.33	0.0	0.0
	10300	1	0.0	0.0	0.0	0.0	1	1.0266594	-34.857961	138.0	1	1.1	0.9	20.2	0.2	0.0	0.0
	10301	1	50.57000000000001	7.59	0.0	0.0	1	1.0264672	-34.887036	138.0	1	1.1	0.9	20.21	0.2	0.0	0.0
	10302	1	0.0	0.0	0.0	50.0	1	1.0249654	-36.98956	138.0	1	1.1	0.9	20.37	0.28	0.0	0.0
	10303	1	0.0	0.0	0.0	0.0	1	1.0247428	-36.9559	138.0	1	1.1	0.9	20.37	0.28	0.0	0.0
	10304	1	0.0	0.0	0.0	0.0	1	1.0249654	-36.98956	138.0	1	1.1	0.9	20.37	0.28	0.0	0.0
	10305	1	47.86	19.46	0.0	0.0	1	1.0246227	-37.017712	138.0	1	1.1	0.9	20.38	0.28	0.0	0.0
	10306	1	60.83	25.540000000000003	0.0	0.0	1	1.037163	-38.159383000000005	138.0	1	1.1	0.9	20.46	0.26	0.0	0.0
	10307	1	48.61	20.93	0.0	0.0	1	1.0212396	-36.541965	138.0	1	1.1	0.9	20.31	0.3	0.0	0.0
	10308	1	0.0	0.0	0.0	0.0	1	1.0215834	-36.516679	138.0	1	1.1	0.9	20.31	0.3	0.0	0.0
	10309	1	39.33	13.63	0.0	0.0	1	1.029003	-37.8702	138.0	1	1.1	0.9	20.46	0.29	0.0	0.0
	10310	1	39.33	5.55	0.0	0.0	1	1.0269968	-37.101391	138.0	1	1.1	0.9	20.39	0.3	0.0	0.0
	10311	1	0.0	0.0	0.0	0.0	1	1.0148335	-38.919856	138.0	1	1.1	0.9	20.55	0.33	0.0	0.0
	10312	1	40.48	22.08	0.0	0.0	1	1.014457	-38.943301	138.0	1	1.1	0.9	20.56	0.34	0.0	0.0
	10313	1	0.0	0.0	0.0	0.0	1	1.0151433	-38.899808	138.0	1	1.1	0.9	20.55	0.33	0.0	0.0
	10314	1	40.48	8.05	0.0	93.5	1	1.0260162	-38.901184	138.0	1	1.1	0.9	20.55	0.22	0.0	0.0
	10315	1	44.5	8.52	0.0	0.0	1	1.02407	-38.103603	138.0	1	1.1	0.9	20.49	0.3	0.0	0.0
	10316	1	44.5	7.51	0.0	0.0	1	1.0426295	-37.622022	138.0	1	1.1	0.9	20.38	0.24	0.0	0.0
	10317	1	0.0	0.0	0.0	0.0	1	1.0427958	-37.596666	138.0	1	1.1	0.9	20.37	0.24	0.0	0.0
	10318	1	37.74	7.21	0.0	0.0	1	1.0323085	-37.456222	138.0	1	1.1	0.9	20.41	0.28	0.0	0.0
	10319	1	0.0	0.0	0.0	0.0	1	1.0297508	-38.242718	138.0	1	1.1	0.9	20.49	0.29	0.0	0.0
	10320	1	37.74	9.18	0.0	0.0	1	1.0295731	-38.262094	138.0	1	1.1	0.9	20.49	0.29	0.0	0.0
	10321	1	32.26	13.889999999999999	0.0	0.0	1	1.0245319	-38.215947	138.0	1	1.1	0.9	20.5	0.3	0.0	0.0
	10322	1	32.26	6.52	0.0	0.0	1	1.0384902	-37.657166	138.0	1	1.1	0.9	20.4	0.26	0.0	0.0
	10323	1	50.580000000000005	11.16	0.0	0.0	1	1.0271287	-38.135099	138.0	1	1.1	0.9	20.49	0.3	0.0	0.0
	10324	1	32.27	4.42	0.0	0.0	1	1.0154109	-37.939408	138.0	1	1.1	0.9	20.48	0.31	0.0	0.0
	10325	1	0.0	0.0	0.0	0.0	1	1.015545	-37.920023	138.0	1	1.1	0.9	20.48	0.31	0.0	0.0
	10326	1	32.27	7.919999999999999	0.0	0.0	1	1.02024	-37.104407	138.0	1	1.1	0.9	20.38	0.31	0.0	0.0
	10327	1	0.0	0.0	0.0	0.0	1	1.0285566	-38.089072	138.0	1	1.1	0.9	20.51	0.3	0.0	0.0
	10328	1	52.71	7.8100000000000005	0.0	0.0	1	1.0283638	-38.122043	138.0	1	1.1	0.9	20.51	0.3	0.0	0.0
	10329	1	0.0	0.0	0.0	0.0	1	1.0287532	-38.057496	138.0	1	1.1	0.9	20.51	0.3	0.0	0.0
	10330	1	0.0	0.0	0.0	0.0	1	1.0071563	-34.579041	345.0	1	1.1	0.9	20.28	0.27	0.0	0.0
	10331	1	0.0	0.0	0.0	0.0	1	1.0444386	-37.41554800000001	138.0	1	1.1	0.9	20.35	0.23	0.0	0.0
	10332	1	52.71	12.35	0.0	0.0	1	1.0068835	-34.610939	345.0	1	1.1	0.9	20.29	0.27	0.0	0.0
	10333	1	0.0	0.0	0.0	0.0	1	1.0115623	-34.049333	345.0	1	1.1	0.9	20.23	0.25	0.0	0.0
	10334	1	55.45	10.21	0.0	0.0	1	1.0178501	-37.837851	138.0	1	1.1	0.9	20.42	0.33	0.0	0.0
	10335	1	0.0	0.0	0.0	0.0	1	1.0178501	-37.837851	13.8	1	1.1	0.9	20.42	0.33	0.0	0.0
	10336	1	0.0	0.0	0.0	0.0	1	1.0178501	-37.837851	13.8	1	1.1	0.9	20.42	0.33	0.0	0.0
	10337	1	0.0	0.0	0.0	0.0	1	1.0178501	-37.837851	1.0	1	1.1	0.9	20.42	0.33	0.0	0.0
	10338	1	55.45	18.16	0.0	0.0	1	1.0290314	-38.091452000000004	138.0	1	1.1	0.9	20.51	0.29	0.0	0.0
	10339	1	43.2	7.24	0.0	0.0	1	1.0170896	-37.541611	138.0	1	1.1	0.9	20.41	0.33	0.0	0.0
	10340	1	0.0	0.0	0.0	0.0	1	1.0187489	-36.849112	138.0	1	1.1	0.9	20.34	0.31	0.0	0.0